<nodes>
  <node id="node213775" x="385564.38743774005" y="393880.3449396946" type="priority"/>
  <node id="node176633" x="381422.79683504265" y="394081.13618284307" type="priority"/>
  <node id="node149360" x="382232.3646050732" y="396144.29073727457" type="priority"/>
  <node id="node178882" x="385885.1370136412" y="395475.68023039075" type="priority"/>
  <node id="node236660" x="384326.08794525213" y="396000.12491667434" type="priority"/>
  <node id="node133074" x="383221.7578770334" y="394652.36980106065" type="priority"/>
  <node id="node5724" x="383486.1342136918" y="391792.02101904794" type="priority"/>
  <node id="node1108" x="385537.2876299721" y="393520.4321289686" type="priority"/>
  <node id="node10686" x="382618.060737704" y="391116.3057612196" type="priority"/>
  <node id="node121406" x="384677.1310614875" y="396363.81583417853" type="priority"/>
  <node id="node235307" x="385163.75046822877" y="393583.43101235846" type="priority"/>
  <node id="node33078" x="385686.3153859916" y="396276.9469373113" type="priority"/>
  <node id="node151855" x="383487.46227259346" y="396192.41804102546" type="priority"/>
  <node id="node152391" x="384378.73069400195" y="391985.2265495159" type="priority"/>
  <node id="node10045" x="383946.8629156177" y="391461.97247833526" type="priority"/>
  <node id="node33030" x="386323.1502187083" y="396494.7209642581" type="priority"/>
  <node id="node132691" x="382164.5479490963" y="394746.0294807455" type="priority"/>
  <node id="node4956" x="384697.60263165995" y="395081.95188508154" type="priority"/>
  <node id="node1104" x="385630.2891636624" y="393693.54758674157" type="priority"/>
  <node id="node29744" x="387388.7336432758" y="394087.52208078466" type="priority"/>
  <node id="node6205" x="381355.86320345174" y="395087.8896302885" type="priority"/>
  <node id="node176002" x="386597.9297808515" y="395213.13465029735" type="priority"/>
  <node id="node105644" x="387361.6698730076" y="394592.20982964576" type="priority"/>
  <node id="node31736" x="387638.89888046775" y="395011.4224169111" type="priority"/>
  <node id="node132917" x="383909.19625576964" y="395177.3701868917" type="priority"/>
  <node id="node154676" x="381722.78972876805" y="395841.6599949043" type="priority"/>
  <node id="node2118" x="384345.5595672387" y="395201.7527299617" type="priority"/>
  <node id="node105457" x="387408.5994573952" y="394096.92535129364" type="priority"/>
  <node id="node201126" x="386036.6044569863" y="391625.3590476749" type="priority"/>
  <node id="node206760" x="387476.48612753017" y="392892.2423847858" type="priority"/>
  <node id="node154186" x="383583.8318894315" y="392116.32987547776" type="priority"/>
  <node id="node10184" x="384927.81027673476" y="391136.27130431717" type="priority"/>
  <node id="node149979" x="387539.03954980214" y="393675.9372528609" type="priority"/>
  <node id="node10426" x="385443.0152763112" y="391431.696858953" type="priority"/>
  <node id="node10380" x="384865.90905872185" y="391199.5508326843" type="priority"/>
  <node id="node128952" x="382580.1397369913" y="395769.21810663753" type="priority"/>
  <node id="node125560" x="381598.9314950072" y="396217.6284010217" type="priority"/>
  <node id="node128611" x="385364.92443111574" y="395275.9014184459" type="priority"/>
  <node id="node5145" x="385100.4122606648" y="394955.09609413956" type="priority"/>
  <node id="node138210" x="383302.52282773633" y="394398.83376054256" type="priority"/>
  <node id="node157676" x="385100.46051440714" y="392913.9815612075" type="priority"/>
  <node id="node182132" x="383405.79444242455" y="394503.2478835644" type="priority"/>
  <node id="node109419" x="386736.3091368746" y="393310.15207291214" type="priority"/>
  <node id="node88230" x="384847.190777169" y="391200.97948019026" type="priority"/>
  <node id="node31677" x="387526.6066264345" y="395338.9959286034" type="priority"/>
  <node id="node5641" x="382379.4040884738" y="392537.7193028436" type="priority"/>
  <node id="node48933" x="387543.30680983263" y="391276.6728396397" type="priority"/>
  <node id="node3214" x="383817.3463598543" y="392975.84962109127" type="priority"/>
  <node id="node110544" x="383778.3267418089" y="391954.0035359825" type="priority"/>
  <node id="node10049" x="384436.38939115824" y="391186.52179113013" type="priority"/>
  <node id="node10476" x="385864.1641124962" y="390976.597650864" type="priority"/>
  <node id="node151783" x="383345.0163980439" y="396195.0342844712" type="priority"/>
  <node id="node2450" x="381649.63812940166" y="392982.441979607" type="priority"/>
  <node id="node33124" x="385318.0014379401" y="396489.13372026826" type="priority"/>
  <node id="node5070" x="384975.13402316975" y="395439.1068275546" type="priority"/>
  <node id="node5487" x="383535.320017178" y="392408.2187197688" type="priority"/>
  <node id="node214972" x="386517.4009611649" y="391952.4658303513" type="priority"/>
  <node id="node151858" x="383403.84528869914" y="396160.3595393786" type="priority"/>
  <node id="node154106" x="381964.5426496847" y="393361.18189633935" type="priority"/>
  <node id="node115953" x="385012.0978275388" y="395856.47137735516" type="priority"/>
  <node id="node129796" x="383692.9731110383" y="396516.26437847194" type="priority"/>
  <node id="node5852" x="385532.4350718677" y="393860.4841748814" type="priority"/>
  <node id="node133065" x="383241.99569425767" y="394732.81260540173" type="priority"/>
  <node id="node149215" x="382196.81054921343" y="396375.9690142849" type="priority"/>
  <node id="node107433" x="385670.59021760116" y="395052.4283297481" type="priority"/>
  <node id="node33379" x="387648.5508361923" y="395158.7308657301" type="priority"/>
  <node id="node128986" x="385671.5758984574" y="393853.02672934876" type="priority"/>
  <node id="node187115" x="387680.1355391857" y="396160.46999705245" type="priority"/>
  <node id="node105543" x="386585.99145424453" y="395285.8066555933" type="priority"/>
  <node id="node76442" x="385759.6957507054" y="394218.5848663168" type="priority"/>
  <node id="node107450" x="385920.80749784346" y="395353.2712465585" type="priority"/>
  <node id="node194354" x="384732.7044957306" y="393995.17189323314" type="priority"/>
  <node id="node213365" x="383018.8595148697" y="392135.5111934704" type="priority"/>
  <node id="node2438" x="381668.38283646666" y="393170.7673779294" type="priority"/>
  <node id="node32918" x="386490.4134544975" y="395943.83861386275" type="priority"/>
  <node id="node2018" x="381839.8335436821" y="393605.98730912077" type="priority"/>
  <node id="node31554" x="383519.59288131824" y="395488.363251011" type="priority"/>
  <node id="node93519" x="382630.2911222286" y="396001.01015629835" type="priority"/>
  <node id="node158860" x="385127.63753341575" y="391220.6890785154" type="priority"/>
  <node id="node154900" x="385306.6602817079" y="393236.25884182076" type="priority"/>
  <node id="node130399" x="383035.5310686477" y="392762.26850512123" type="priority"/>
  <node id="node110485" x="382845.68288452766" y="392093.92901061644" type="priority"/>
  <node id="node129574" x="383207.6733118197" y="393511.97269080585" type="priority"/>
  <node id="node151864" x="383489.14037928433" y="396116.3138730708" type="priority"/>
  <node id="node105590" x="387597.89100618166" y="394742.6739207764" type="priority"/>
  <node id="node33001" x="386329.63980018505" y="395975.966967567" type="priority"/>
  <node id="node93540" x="382397.1850278405" y="395882.1441755594" type="priority"/>
  <node id="node8910" x="382121.0934557997" y="395298.5631992801" type="priority"/>
  <node id="node189508" x="385685.7295294133" y="395818.8916598085" type="priority"/>
  <node id="node43852" x="383818.9061821992" y="393703.75870027766" type="priority"/>
  <node id="node128946" x="386900.02445723047" y="396169.859151238" type="priority"/>
  <node id="node2124" x="381628.4144594415" y="393283.15669773956" type="priority"/>
  <node id="node154695" x="381614.92583927454" y="395845.48459075455" type="priority"/>
  <node id="node4552" x="382104.2302766503" y="394092.64833208104" type="priority"/>
  <node id="node152405" x="384269.7365762396" y="392039.5143745823" type="priority"/>
  <node id="node152300" x="384009.433488431" y="395983.91356283834" type="priority"/>
  <node id="node29751" x="387430.8471398012" y="394073.09075866477" type="priority"/>
  <node id="node133413" x="382113.2522462906" y="392470.0452643716" type="priority"/>
  <node id="node8900" x="382196.1956349837" y="395157.1183581004" type="priority"/>
  <node id="node105366" x="386991.2531070488" y="394157.91768819327" type="priority"/>
  <node id="node4521" x="382161.4864370848" y="394595.37995134847" type="priority"/>
  <node id="node2948" x="384645.0678989284" y="392268.4481558511" type="priority"/>
  <node id="node132900" x="383748.2817948146" y="394621.73981135193" type="priority"/>
  <node id="node2720" x="384826.20011943503" y="394957.1191953836" type="priority"/>
  <node id="node152267" x="383773.82185479056" y="395996.78085728287" type="priority"/>
  <node id="node5600" x="382509.89637089876" y="392008.09647848" type="priority"/>
  <node id="node193313" x="386603.8207727029" y="394309.95629977854" type="priority"/>
  <node id="node143053" x="386378.0946010275" y="393204.1394360804" type="priority"/>
  <node id="node29674" x="386251.1498503883" y="395326.5150549565" type="priority"/>
  <node id="node29664" x="386243.28511173034" y="395513.9015222922" type="priority"/>
  <node id="node82248" x="381417.6997310149" y="396348.0640721938" type="priority"/>
  <node id="node164885" x="384239.35446475045" y="395400.15176673734" type="priority"/>
  <node id="node133123" x="382138.1745165114" y="394016.0763720543" type="priority"/>
  <node id="node163753" x="387697.8639268433" y="391623.81051481905" type="priority"/>
  <node id="node18351" x="386766.9222363325" y="395297.5312287909" type="priority"/>
  <node id="node201282" x="387507.0480347191" y="396482.76438075677" type="priority"/>
  <node id="node171146" x="385474.5949245326" y="393289.8621793192" type="priority"/>
  <node id="node205714" x="385704.61151871935" y="392527.32332135347" type="priority"/>
  <node id="node138054" x="387715.44089041837" y="392609.1936045703" type="priority"/>
  <node id="node19855" x="387623.2220561734" y="391708.3367738287" type="priority"/>
  <node id="node4520" x="382728.3429783535" y="395593.30067001644" type="priority"/>
  <node id="node93597" x="382886.3623883902" y="396197.6712276625" type="priority"/>
  <node id="node10460" x="385764.90494684066" y="391438.6887293095" type="priority"/>
  <node id="node137792" x="382162.0778454987" y="394567.41940442653" type="priority"/>
  <node id="node2596" x="384750.9755546568" y="394793.15108736494" type="priority"/>
  <node id="node6171" x="381812.4865725706" y="395361.8371214278" type="priority"/>
  <node id="node14340" x="382878.75099107815" y="395868.6404713662" type="priority"/>
  <node id="node107467" x="387042.55271683284" y="394331.866219512" type="priority"/>
  <node id="node2927" x="384514.0714975747" y="392165.7894841132" type="priority"/>
  <node id="node155787" x="386064.91976729163" y="391590.91991400765" type="priority"/>
  <node id="node105469" x="386410.1348387401" y="395118.59643878136" type="priority"/>
  <node id="node151483" x="383204.51554022194" y="396394.5578230082" type="priority"/>
  <node id="node226621" x="385107.8068164576" y="395727.22307495784" type="priority"/>
  <node id="node93467" x="382584.4655436383" y="396195.0968847353" type="priority"/>
  <node id="node2404" x="386583.29174554686" y="392179.1681925808" type="priority"/>
  <node id="node117045" x="384432.07992536965" y="396263.6131071759" type="priority"/>
  <node id="node5137" x="384967.7178757696" y="395013.8381514599" type="priority"/>
  <node id="node152443" x="384940.1491637402" y="392374.7877443126" type="priority"/>
  <node id="node157203" x="382328.5316423587" y="395693.7244130893" type="priority"/>
  <node id="node10461" x="385850.8276860835" y="391408.6468713315" type="priority"/>
  <node id="node3671" x="384905.6920994813" y="391824.6028544268" type="priority"/>
  <node id="node107457" x="387364.82708904863" y="396184.01562156674" type="priority"/>
  <node id="node190420" x="384308.48051239585" y="391302.58365138166" type="priority"/>
  <node id="node114828" x="383560.2081624072" y="392070.5644966704" type="priority"/>
  <node id="node107524" x="387336.54712017614" y="396126.3731038876" type="priority"/>
  <node id="node214606" x="383839.8978775015" y="395528.66060391476" type="priority"/>
  <node id="node151789" x="383301.8203504262" y="396084.70033132937" type="priority"/>
  <node id="node174256" x="387812.8278280462" y="392593.90947891667" type="priority"/>
  <node id="node151431" x="383003.46731270466" y="396259.8719064351" type="priority"/>
  <node id="node5405" x="386367.22708875587" y="392648.0015367445" type="priority"/>
  <node id="node216481" x="382428.8603854226" y="395237.60442554473" type="priority"/>
  <node id="node202842" x="385209.9004999454" y="395616.3915262878" type="priority"/>
  <node id="node93603" x="382608.12169149006" y="396392.57585190894" type="priority"/>
  <node id="node4988" x="384374.40606650035" y="394619.8849060547" type="priority"/>
  <node id="node207301" x="381762.61735310423" y="393287.6192944427" type="priority"/>
  <node id="node1389" x="385269.89778774034" y="392187.0150784219" type="priority"/>
  <node id="node194227" x="385380.40901" y="394109.65212321037" type="priority"/>
  <node id="node5397" x="386744.12636577623" y="392063.3973570064" type="priority"/>
  <node id="node19883" x="387747.75048085535" y="392004.7459093518" type="priority"/>
  <node id="node3143" x="385993.75597155705" y="393671.7349612355" type="priority"/>
  <node id="node5401" x="386675.6814639975" y="392890.8073897847" type="priority"/>
  <node id="node105643" x="387219.6730348242" y="394597.3670475991" type="priority"/>
  <node id="node2965" x="385037.9420487747" y="392051.62791710073" type="priority"/>
  <node id="node78657" x="387388.96095816116" y="395334.00134706916" type="priority"/>
  <node id="node157152" x="382478.500941559" y="395826.2354201507" type="priority"/>
  <node id="node127560" x="383817.20692743245" y="395756.05416240636" type="priority"/>
  <node id="node214685" x="382613.141433369" y="393281.42030486" type="priority"/>
  <node id="node5407" x="386473.1087886373" y="392896.4370336791" type="priority"/>
  <node id="node93594" x="382800.21583893464" y="395979.73681802396" type="priority"/>
  <node id="node176905" x="382464.9327518695" y="393982.63965759275" type="priority"/>
  <node id="node46048" x="387329.653569923" y="391214.0297958949" type="priority"/>
  <node id="node176363" x="385417.85946984054" y="395152.5114799854" type="priority"/>
  <node id="node133050" x="384279.78446397954" y="394393.7641640434" type="priority"/>
  <node id="node149255" x="382049.9907345769" y="396514.8280931733" type="priority"/>
  <node id="node133231" x="383174.7011097854" y="395097.68980463577" type="priority"/>
  <node id="node172622" x="382583.1759878721" y="395240.55744743784" type="priority"/>
  <node id="node8939" x="381783.2393942829" y="393942.0168374296" type="priority"/>
  <node id="node102479" x="381820.86926211405" y="394069.2245911237" type="priority"/>
  <node id="node2417" x="383029.8704624767" y="392128.13984998583" type="priority"/>
  <node id="node137841" x="382350.4795192644" y="394571.80460191664" type="priority"/>
  <node id="node1265" x="385599.8345110107" y="392648.9765403605" type="priority"/>
  <node id="node191059" x="383607.9530438115" y="392825.9805555503" type="priority"/>
  <node id="node5038" x="384162.5648129551" y="394931.26055073173" type="priority"/>
  <node id="node127305" x="382953.683753292" y="396361.9059432906" type="priority"/>
  <node id="node236022" x="387694.1483597794" y="393373.3181040716" type="priority"/>
  <node id="node93624" x="382946.93718612514" y="396473.2631843908" type="priority"/>
  <node id="node127582" x="384262.42514072283" y="394928.410928115" type="priority"/>
  <node id="node107527" x="386891.3233818999" y="395150.9051685953" type="priority"/>
  <node id="node128192" x="384561.1433353456" y="394986.58569900575" type="priority"/>
  <node id="node127307" x="382968.94383624365" y="396360.97173849784" type="priority"/>
  <node id="node31882" x="381827.9079811989" y="396503.89884449745" type="priority"/>
  <node id="node31500" x="386146.5919625548" y="396509.8018391699" type="priority"/>
  <node id="node8916" x="381958.5330638571" y="394734.68789534236" type="priority"/>
  <node id="node207748" x="385962.6373883967" y="394337.80616792967" type="priority"/>
  <node id="node139224" x="384269.69557734916" y="393184.08548803884" type="priority"/>
  <node id="node135543" x="384599.0284024533" y="396311.24743522116" type="priority"/>
  <node id="node145383" x="383734.4392662755" y="396331.8493895692" type="priority"/>
  <node id="node171052" x="383696.9052978017" y="391450.3820052196" type="priority"/>
  <node id="node3066" x="384939.7248242507" y="392096.9101133925" type="priority"/>
  <node id="node2970" x="384518.6474898886" y="392807.26522961917" type="priority"/>
  <node id="node102966" x="384611.1916942179" y="395648.2301806718" type="priority"/>
  <node id="node92823" x="387776.87648605765" y="391892.3706367054" type="priority"/>
  <node id="node207880" x="385648.2904343977" y="394465.4964774059" type="priority"/>
  <node id="node157202" x="382311.5706238678" y="395754.9672038143" type="priority"/>
  <node id="node2956" x="385067.46552204294" y="392252.2584437308" type="priority"/>
  <node id="node178844" x="385782.4663729734" y="395154.10869264184" type="priority"/>
  <node id="node110360" x="383463.3335542417" y="395990.09701866226" type="priority"/>
  <node id="node234260" x="387826.7663036768" y="393610.5994838022" type="priority"/>
  <node id="node48936" x="387600.7307334966" y="391213.8184830009" type="priority"/>
  <node id="node27480" x="383235.58491813793" y="395935.93244890694" type="priority"/>
  <node id="node208210" x="385862.9089026574" y="394187.9453615365" type="priority"/>
  <node id="node5067" x="384943.9420440429" y="395515.2379713903" type="priority"/>
  <node id="node157471" x="383821.82501914084" y="392374.8837623815" type="priority"/>
  <node id="node137974" x="384163.8402181634" y="395071.35905845376" type="priority"/>
  <node id="node10482" x="386213.10650279693" y="391499.58887661516" type="priority"/>
  <node id="node137471" x="386790.2861687049" y="395713.6788973556" type="priority"/>
  <node id="node210365" x="385370.8512997823" y="395835.7710368357" type="priority"/>
  <node id="node154183" x="383488.7480875847" y="391948.0345517643" type="priority"/>
  <node id="node191846" x="384223.02008336864" y="396197.8466675949" type="priority"/>
  <node id="node183251" x="387562.81123121624" y="395564.57900613284" type="priority"/>
  <node id="node137796" x="382162.70304114505" y="394537.85666321963" type="priority"/>
  <node id="node94125" x="382337.6134102375" y="396485.4360089815" type="priority"/>
  <node id="node5215" x="384082.10500479303" y="395699.5892813355" type="priority"/>
  <node id="node109460" x="384814.7249891442" y="393099.94427308167" type="priority"/>
  <node id="node5686" x="382817.221040664" y="393058.79642737116" type="priority"/>
  <node id="node214753" x="386425.2049817018" y="394151.76506538515" type="priority"/>
  <node id="node105760" x="383481.51669328194" y="393795.4809756385" type="priority"/>
  <node id="node4504" x="383015.625854715" y="394614.4039309689" type="priority"/>
  <node id="node14318" x="382207.9940997082" y="395758.8511617898" type="priority"/>
  <node id="node117048" x="384217.16084386705" y="396115.79374777986" type="priority"/>
  <node id="node129592" x="384073.4707703793" y="393494.48853832815" type="priority"/>
  <node id="node33071" x="386588.20750129386" y="396005.749437618" type="priority"/>
  <node id="node124115" x="386224.33281376096" y="394619.1944918053" type="priority"/>
  <node id="node2975" x="384631.0945778046" y="392659.2957848741" type="priority"/>
  <node id="node1288" x="385333.3737696511" y="392494.8232213089" type="priority"/>
  <node id="node149936" x="383860.0590672762" y="396204.0297214812" type="priority"/>
  <node id="node18674" x="385221.3479401602" y="394921.57159831247" type="priority"/>
  <node id="node128271" x="385235.84393855935" y="394419.92478253355" type="priority"/>
  <node id="node6290" x="383814.4933373925" y="395243.52451916685" type="priority"/>
  <node id="node46818" x="386231.8122561063" y="391510.04754631367" type="priority"/>
  <node id="node3310" x="384311.0608931612" y="392146.4695426082" type="priority"/>
  <node id="node191432" x="382355.38075030595" y="393288.6539941444" type="priority"/>
  <node id="node31739" x="387692.5840390149" y="394950.3363024449" type="priority"/>
  <node id="node6211" x="381441.5779279043" y="395210.73233406607" type="priority"/>
  <node id="node100803" x="382956.0322747268" y="395712.8478371197" type="priority"/>
  <node id="node93521" x="382622.5394495952" y="395919.27758488385" type="priority"/>
  <node id="node187100" x="387604.40095801285" y="396201.0993332135" type="priority"/>
  <node id="node133046" x="383984.8591152068" y="394546.6548527735" type="priority"/>
  <node id="node152427" x="384281.8423045314" y="392112.57893447304" type="priority"/>
  <node id="node133157" x="382332.8672716006" y="392694.0057406124" type="priority"/>
  <node id="node24372" x="384878.2078802802" y="393910.4934002248" type="priority"/>
  <node id="node5569" x="383115.3207627183" y="391702.0854118939" type="priority"/>
  <node id="node105528" x="386609.1292473377" y="395367.9352841061" type="priority"/>
  <node id="node78661" x="387451.9771049486" y="396206.9448869941" type="priority"/>
  <node id="node33063" x="386599.026894585" y="396127.8981383369" type="priority"/>
  <node id="node129577" x="382398.99966624595" y="393208.076025143" type="priority"/>
  <node id="node93555" x="382555.43205933063" y="395971.49312563514" type="priority"/>
  <node id="node165186" x="383790.05636562215" y="392230.1402208651" type="priority"/>
  <node id="node201121" x="384279.6593143814" y="391779.2915563299" type="priority"/>
  <node id="node130408" x="383008.77917569276" y="392881.30693437933" type="priority"/>
  <node id="node128976" x="386821.78779533633" y="396527.6276818508" type="priority"/>
  <node id="node48931" x="387516.5621156595" y="391216.56679265265" type="priority"/>
  <node id="node134154" x="386970.3841836354" y="396287.7598402978" type="priority"/>
  <node id="node200883" x="385581.3524567336" y="396046.75970388233" type="priority"/>
  <node id="node33380" x="387710.28507216804" y="395154.140858461" type="priority"/>
  <node id="node111475" x="385473.13120179344" y="394997.8413454244" type="priority"/>
  <node id="node149981" x="387501.14739970636" y="393660.5514243968" type="priority"/>
  <node id="node13" x="384751.06314738526" y="396543.3740255381" type="priority"/>
  <node id="node32937" x="386673.2548733565" y="395989.486602302" type="priority"/>
  <node id="node236663" x="386557.2337405282" y="394156.7812307483" type="priority"/>
  <node id="node3601" x="383604.0174099821" y="392102.29714501457" type="priority"/>
  <node id="node134153" x="387510.6191732225" y="396392.7611990122" type="priority"/>
  <node id="node105447" x="387383.4208166163" y="394377.086081622" type="priority"/>
  <node id="node2715" x="384718.5925300297" y="393078.14940093225" type="priority"/>
  <node id="node33378" x="387724.76153867523" y="395113.3283208172" type="priority"/>
  <node id="node129793" x="383691.18687407643" y="396481.7148278218" type="priority"/>
  <node id="node43850" x="383432.98267986055" y="392670.0584562485" type="priority"/>
  <node id="node213774" x="385557.27933778835" y="393862.88874566637" type="priority"/>
  <node id="node2558" x="385566.3618533117" y="391670.74604343815" type="priority"/>
  <node id="node219144" x="384318.2903956782" y="393053.5556257817" type="priority"/>
  <node id="node2985" x="384641.92717952654" y="392847.25754180725" type="priority"/>
  <node id="node18904" x="383064.5551858617" y="393913.223938136" type="priority"/>
  <node id="node3176" x="384437.3591250423" y="393577.2676315929" type="priority"/>
  <node id="node107722" x="385904.4613230344" y="393824.3643949691" type="priority"/>
  <node id="node5373" x="386713.0385762805" y="392366.00633728225" type="priority"/>
  <node id="node4918" x="383972.72100437654" y="395206.19069088716" type="priority"/>
  <node id="node27449" x="387482.70680862013" y="394310.8577783625" type="priority"/>
  <node id="node154684" x="381768.6544133629" y="395910.9162970617" type="priority"/>
  <node id="node10160" x="384682.34334296157" y="391022.149706966" type="priority"/>
  <node id="node214056" x="382294.1223406084" y="393409.1166611458" type="priority"/>
  <node id="node154177" x="386605.8596348327" y="392263.6344409231" type="priority"/>
  <node id="node10379" x="384601.23198257777" y="391661.3562572739" type="priority"/>
  <node id="node139575" x="381523.75747086224" y="395592.9034661306" type="priority"/>
  <node id="node2250" x="383386.24816407356" y="393656.8262560411" type="priority"/>
  <node id="node127306" x="382970.550790444" y="396406.880813578" type="priority"/>
  <node id="node195563" x="385868.0184600867" y="393905.7672164135" type="priority"/>
  <node id="node177341" x="382304.90679319116" y="395323.1232249978" type="priority"/>
  <node id="node93471" x="382549.13206314284" y="396292.1308846642" type="priority"/>
  <node id="node4803" x="381706.73836648505" y="394005.69521822326" type="priority"/>
  <node id="node10374" x="384456.9280216887" y="391456.6116615619" type="priority"/>
  <node id="node1442" x="386420.30087450426" y="393006.3079231263" type="priority"/>
  <node id="node3748" x="382015.7528593406" y="393539.3604188494" type="priority"/>
  <node id="node3716" x="381917.4064076573" y="393893.6156534783" type="priority"/>
  <node id="node105449" x="387387.00002431375" y="394416.3491447528" type="priority"/>
  <node id="node154104" x="381907.0123407202" y="393351.2005483959" type="priority"/>
  <node id="node2557" x="385841.694376433" y="392999.42629421107" type="priority"/>
  <node id="node208007" x="382851.6545931184" y="395515.5385930904" type="priority"/>
  <node id="node144341" x="385894.54870529944" y="392362.40549275145" type="priority"/>
  <node id="node130742" x="387480.15152082045" y="393616.59531228035" type="priority"/>
  <node id="node193008" x="384375.6023225643" y="393920.369144629" type="priority"/>
  <node id="node31724" x="387516.04312405264" y="395132.41387716896" type="priority"/>
  <node id="node158903" x="385874.7734557571" y="391085.4719726577" type="priority"/>
  <node id="node3245" x="383517.2840377667" y="391857.1401253457" type="priority"/>
  <node id="node218713" x="384663.96315373527" y="396495.283956161" type="priority"/>
  <node id="node151869" x="383406.9882358419" y="396044.40983107674" type="priority"/>
  <node id="node3181" x="384558.97656845645" y="393438.52221689635" type="priority"/>
  <node id="node4911" x="384263.965242691" y="395525.45323493326" type="priority"/>
  <node id="node2332" x="384462.57833100273" y="395260.4740714856" type="priority"/>
  <node id="node138870" x="387658.75633446657" y="394408.10603076295" type="priority"/>
  <node id="node5691" x="382114.29758571653" y="393389.03622134926" type="priority"/>
  <node id="node157605" x="381867.92281055055" y="395555.00644834206" type="priority"/>
  <node id="node133004" x="383229.83683498524" y="394099.6952907467" type="priority"/>
  <node id="node5409" x="386405.85560022685" y="392447.5326185797" type="priority"/>
  <node id="node100755" x="383625.3383489061" y="395792.6648159787" type="priority"/>
  <node id="node130688" x="385284.132632368" y="395076.107181155" type="priority"/>
  <node id="node93530" x="382592.5761344729" y="396038.26420679176" type="priority"/>
  <node id="node4498" x="382542.5995989229" y="394493.6881811495" type="priority"/>
  <node id="node105541" x="386727.75977674173" y="395219.05175526836" type="priority"/>
  <node id="node33353" x="387521.40560091054" y="395016.2725290252" type="priority"/>
  <node id="node225571" x="385566.063798332" y="394625.1645360393" type="priority"/>
  <node id="node2432" x="381813.2074341825" y="393003.7024177006" type="priority"/>
  <node id="node163666" x="383566.5132979592" y="392888.68330463005" type="priority"/>
  <node id="node154687" x="381466.96257628856" y="395602.8615880224" type="priority"/>
  <node id="node193314" x="386577.78051577223" y="394271.5144618131" type="priority"/>
  <node id="node2625" x="381367.84372788284" y="396313.994657852" type="priority"/>
  <node id="node166071" x="383238.3405015246" y="394398.43894672085" type="priority"/>
  <node id="node128203" x="384524.30549142195" y="395027.01430548093" type="priority"/>
  <node id="node226800" x="384736.5627230689" y="396285.5216364642" type="priority"/>
  <node id="node156435" x="382919.8906642504" y="395890.31909206015" type="priority"/>
  <node id="node93789" x="382574.3554520836" y="396019.93011380325" type="priority"/>
  <node id="node3319" x="386375.88058318314" y="392013.79637269105" type="priority"/>
  <node id="node152412" x="384262.4725621935" y="391931.9560517506" type="priority"/>
  <node id="node137793" x="382474.01912867674" y="394574.69169475423" type="priority"/>
  <node id="node235640" x="383281.87133095186" y="395579.3297127159" type="priority"/>
  <node id="node105373" x="386613.0372260764" y="393910.4611156816" type="priority"/>
  <node id="node4802" x="381887.4883192758" y="394813.84037493495" type="priority"/>
  <node id="node133228" x="383024.47344020585" y="395253.34078490187" type="priority"/>
  <node id="node8941" x="381850.00389462285" y="393904.0770513102" type="priority"/>