<?xml version='1.0' encoding='UTF-8'?>
<routes xmlns:xsi="http://www.w3.org/2001/XMLSchema-instance" xsi:noNamespaceSchemaLocation="http://sumo.dlr.de/xsd/routes_file.xsd">
  <trip id="570#5_0" depart="0.00" from="edge88606" to="edge156803"/>
  <trip id="1122#0_1" depart="0.00" from="edge140829" to="edge206044"/>
  <trip id="9562#2_2" depart="0.00" from="edge88606" to="edge54467"/>
  <trip id="9846#3_3" depart="0.00" from="edge140829" to="edge245420"/>
  <trip id="18832#0_6" depart="0.00" from="edge205969" to="edge68874"/>
  <trip id="18901#1_7" depart="0.00" from="edge205969" to="edge68874"/>
  <trip id="18949#2_8" depart="0.00" from="edge205969" to="edge68874"/>
  <trip id="18949#2_9" depart="0.00" from="edge245396" to="edge89484"/>
  <trip id="18949#2_10" depart="0.00" from="edge198936" to="edge160343"/>
  <trip id="19189#6_11" depart="0.00" from="edge205969" to="edge68874"/>
  <trip id="19189#6_12" depart="0.00" from="edge208678" to="edge47494"/>
  <trip id="19259#13_13" depart="0.00" from="edge205969" to="edge68874"/>
  <trip id="19269#12_14" depart="0.00" from="edge60756" to="edge189515"/>
  <trip id="19339#22_15" depart="0.00" from="edge181697" to="edge89484"/>
  <trip id="19339#22_16" depart="0.00" from="edge60756" to="edge253713"/>
  <trip id="19341#12_17" depart="0.00" from="edge60756" to="edge5783"/>
  <trip id="19344#9_18" depart="0.00" from="edge140130" to="edge89484"/>
  <trip id="19344#9_19" depart="0.00" from="edge60756" to="edge253807"/>
  <trip id="19349#2_20" depart="0.00" from="edge60756" to="edge167626"/>
  <trip id="19349#11_21" depart="0.00" from="edge245452" to="edge89484"/>
  <trip id="19349#11_22" depart="0.00" from="edge60756" to="edge185583"/>
  <trip id="19352#31_23" depart="0.00" from="edge60756" to="edge84830"/>
  <trip id="19375#16_24" depart="0.00" from="edge236794" to="edge89484"/>
  <trip id="19380#8_25" depart="0.00" from="edge256552" to="edge89484"/>
  <trip id="19380#8_26" depart="0.00" from="edge60756" to="edge62351"/>
  <trip id="19384#9_27" depart="0.00" from="edge140829" to="edge204197"/>
  <trip id="19405#1_28" depart="0.00" from="edge123557" to="edge89484"/>
  <trip id="19426#6_29" depart="0.00" from="edge215222" to="edge89484"/>
  <trip id="19426#6_30" depart="0.00" from="edge60756" to="edge100538"/>
  <trip id="19430#24_31" depart="0.00" from="edge60756" to="edge256592"/>
  <trip id="19434#2_32" depart="0.00" from="edge198936" to="edge218165"/>
  <trip id="19438#16_33" depart="0.00" from="edge140823" to="edge77832"/>
  <trip id="19441#5_34" depart="0.00" from="edge140829" to="edge53670"/>
  <trip id="19456#14_35" depart="0.00" from="edge140826" to="edge89484"/>
  <trip id="19456#14_36" depart="0.00" from="edge60756" to="edge256656"/>
  <trip id="19456#29_37" depart="0.00" from="edge170472" to="edge89484"/>
  <trip id="19456#29_38" depart="0.00" from="edge60756" to="edge2727"/>
  <trip id="19461#36_39" depart="0.00" from="edge60756" to="edge108627"/>
  <trip id="19481#2_40" depart="0.00" from="edge236793" to="edge89484"/>
  <trip id="19537#3_41" depart="0.00" from="edge192912" to="edge89484"/>
  <trip id="19556#1_42" depart="0.00" from="edge51342" to="edge89484"/>
  <trip id="19562#0_43" depart="0.00" from="edge140824" to="edge89484"/>
  <trip id="19564#4_44" depart="0.00" from="edge139868" to="edge89484"/>
  <trip id="19580#1_45" depart="0.00" from="edge66858" to="edge89484"/>
  <trip id="19619#1_46" depart="0.00" from="edge60756" to="edge233"/>
  <trip id="19625#1_47" depart="0.00" from="edge60756" to="edge233"/>
  <trip id="19632#6_48" depart="0.00" from="edge60756" to="edge233"/>
  <trip id="19634#0_49" depart="0.00" from="edge215226" to="edge89484"/>
  <trip id="19634#0_50" depart="0.00" from="edge60756" to="edge233"/>
  <trip id="19659#1_51" depart="0.00" from="edge60756" to="edge233"/>
  <trip id="19751#2_52" depart="0.00" from="edge140838" to="edge89484"/>
  <trip id="19803#5_53" depart="0.00" from="edge140130" to="edge89484"/>
  <trip id="19809#3_54" depart="0.00" from="edge140827" to="edge89484"/>
  <trip id="19886#4_55" depart="0.00" from="edge140830" to="edge89484"/>
  <trip id="19907#4_56" depart="0.00" from="edge245396" to="edge89484"/>
  <trip id="19907#4_57" depart="0.00" from="edge208678" to="edge209510"/>
  <trip id="20028#0_58" depart="0.00" from="edge245396" to="edge89484"/>
  <trip id="20040#54_59" depart="0.00" from="edge139865" to="edge17825"/>
  <trip id="20041#3_60" depart="0.00" from="edge18629" to="edge89484"/>
  <trip id="20042#2_61" depart="0.00" from="edge66874" to="edge89484"/>
  <trip id="20044#21_62" depart="0.00" from="edge66858" to="edge89484"/>
  <trip id="20060#11_63" depart="0.00" from="edge192912" to="edge89484"/>
  <trip id="20108#1_64" depart="0.00" from="edge18588" to="edge89484"/>
  <trip id="20108#1_65" depart="0.00" from="edge60756" to="edge2950"/>
  <trip id="20153#2_66" depart="0.00" from="edge245440" to="edge89484"/>
  <trip id="20221#2_67" depart="0.00" from="edge60756" to="edge215890"/>
  <trip id="20274#2_68" depart="0.00" from="edge60756" to="edge216093"/>
  <trip id="20313#4_69" depart="0.00" from="edge60756" to="edge257485"/>
  <trip id="20483#3_70" depart="0.00" from="edge60756" to="edge182187"/>
  <trip id="20551#4_71" depart="0.00" from="edge60756" to="edge66369"/>
  <trip id="20645#0_72" depart="0.00" from="edge205969" to="edge68874"/>
  <trip id="20884#3_74" depart="0.00" from="edge168625" to="edge218085"/>
  <trip id="20936#10_75" depart="0.00" from="edge198880" to="edge1734"/>
  <trip id="20968#2_76" depart="0.00" from="edge196452" to="edge257479"/>
  <trip id="21098#3_77" depart="0.00" from="edge240935" to="edge240790"/>
  <trip id="21432#3_78" depart="0.00" from="edge198880" to="edge61989"/>
  <trip id="21519#0_79" depart="0.00" from="edge196452" to="edge253801"/>
  <trip id="21632#2_81" depart="0.00" from="edge93632" to="edge61989"/>
  <trip id="21951#7_82" depart="0.00" from="edge182185" to="edge253801"/>
  <trip id="21951#7_83" depart="0.00" from="edge93632" to="edge61989"/>
  <trip id="21966#2_84" depart="0.00" from="edge153596" to="edge61989"/>
  <trip id="21966#2_85" depart="0.00" from="edge208678" to="edge47494"/>
  <trip id="21987#8_86" depart="0.00" from="edge197906" to="edge253801"/>
  <trip id="21987#8_87" depart="0.00" from="edge93632" to="edge61989"/>
  <trip id="22001#10_88" depart="0.00" from="edge216046" to="edge3157"/>
  <trip id="22026#6_89" depart="0.00" from="edge143950" to="edge25780"/>
  <trip id="22026#6_90" depart="0.00" from="edge196452" to="edge1856"/>
  <trip id="22124#3_91" depart="0.00" from="edge253848" to="edge182758"/>
  <trip id="22126#0_92" depart="0.00" from="edge256602" to="edge257012"/>
  <trip id="22133#4_93" depart="0.00" from="edge213885" to="edge121778"/>
  <trip id="22182#24_94" depart="0.00" from="edge217232" to="edge114360"/>
  <trip id="22185#2_95" depart="0.00" from="edge253748" to="edge61989"/>
  <trip id="22310#11_96" depart="0.00" from="edge140671" to="edge256499"/>
  <trip id="22310#11_97" depart="0.00" from="edge206388" to="edge81174"/>
  <trip id="22335#0_98" depart="0.00" from="edge256448" to="edge185077"/>
  <trip id="22389#2_99" depart="0.00" from="edge147663" to="edge808"/>
  <trip id="22393#1_100" depart="0.00" from="edge206351" to="edge63881"/>
  <trip id="22393#5_101" depart="0.00" from="edge85521" to="edge120470"/>
  <trip id="22442#5_102" depart="0.00" from="edge253731" to="edge253801"/>
  <trip id="22442#5_103" depart="0.00" from="edge168625" to="edge218085"/>
  <trip id="22442#5_104" depart="0.00" from="edge64749" to="edge176165"/>
  <trip id="22463#0_105" depart="0.00" from="edge148773" to="edge253801"/>
  <trip id="22510#1_106" depart="0.00" from="edge253731" to="edge253801"/>
  <trip id="22510#1_107" depart="0.00" from="edge93632" to="edge256585"/>
  <trip id="22580#1_108" depart="0.00" from="edge1624" to="edge253801"/>
  <trip id="22588#1_109" depart="0.00" from="edge115558" to="edge233"/>
  <trip id="22613#0_110" depart="0.00" from="edge213879" to="edge808"/>
  <trip id="22635#4_111" depart="0.00" from="edge68689" to="edge61989"/>
  <trip id="22635#4_112" depart="0.00" from="edge208678" to="edge47494"/>
  <trip id="22698#1_113" depart="0.00" from="edge51095" to="edge253801"/>
  <trip id="22698#1_114" depart="0.00" from="edge93632" to="edge61989"/>
  <trip id="22699#4_115" depart="0.00" from="edge213880" to="edge61989"/>
  <trip id="22763#21_116" depart="0.00" from="edge88071" to="edge808"/>
  <trip id="22849#5_119" depart="0.00" from="edge198880" to="edge61989"/>
  <trip id="23322#3_120" depart="0.00" from="edge240935" to="edge218085"/>
  <trip id="23322#3_121" depart="0.00" from="edge64749" to="edge176165"/>
  <trip id="23877#15_122" depart="0.00" from="edge205969" to="edge68874"/>
  <trip id="23929#1_123" depart="0.00" from="edge205969" to="edge68874"/>
  <trip id="23929#1_124" depart="0.00" from="edge60756" to="edge253800"/>
  <trip id="24544#0_125" depart="0.00" from="edge93632" to="edge111100"/>
  <trip id="24781#1_129" depart="0.00" from="edge134370" to="edge3598"/>
  <trip id="25076#5_132" depart="0.00" from="edge206096" to="edge253682"/>
  <trip id="25076#5_133" depart="0.00" from="edge93632" to="edge2018"/>
  <trip id="25091#0_134" depart="0.00" from="edge81755" to="edge113231"/>
  <trip id="25134#2_135" depart="0.00" from="edge256479" to="edge181395"/>
  <trip id="25162#2_136" depart="0.00" from="edge255789" to="edge253682"/>
  <trip id="25162#2_137" depart="0.00" from="edge93632" to="edge2906"/>
  <trip id="25164#1_138" depart="0.00" from="edge3050" to="edge253682"/>
  <trip id="25164#1_139" depart="0.00" from="edge93632" to="edge2896"/>
  <trip id="25196#3_140" depart="0.00" from="edge216515" to="edge218085"/>
  <trip id="25196#3_141" depart="0.00" from="edge64749" to="edge68874"/>
  <trip id="25201#9_142" depart="0.00" from="edge3035" to="edge255833"/>
  <trip id="25272#12_143" depart="0.00" from="edge255797" to="edge255795"/>
  <trip id="25282#4_144" depart="0.00" from="edge256578" to="edge253682"/>
  <trip id="25282#4_145" depart="0.00" from="edge93632" to="edge253801"/>
  <trip id="25294#2_146" depart="0.00" from="edge255806" to="edge218085"/>
  <trip id="25294#2_147" depart="0.00" from="edge64749" to="edge68874"/>
  <trip id="25294#2_148" depart="0.00" from="edge81999" to="edge119391"/>
  <trip id="25303#4_149" depart="0.00" from="edge143915" to="edge253682"/>
  <trip id="25303#4_150" depart="0.00" from="edge93632" to="edge257366"/>
  <trip id="25312#1_151" depart="0.00" from="edge255768" to="edge253682"/>
  <trip id="25312#2_152" depart="0.00" from="edge120371" to="edge253682"/>
  <trip id="25340#10_153" depart="0.00" from="edge255824" to="edge3004"/>
  <trip id="25523#2_154" depart="0.00" from="edge253617" to="edge253682"/>
  <trip id="25528#6_155" depart="0.00" from="edge253617" to="edge253682"/>
  <trip id="25571#5_156" depart="0.00" from="edge108943" to="edge253682"/>
  <trip id="25571#5_157" depart="0.00" from="edge93632" to="edge256621"/>
  <trip id="25612#27_158" depart="0.00" from="edge98313" to="edge218085"/>
  <trip id="25612#27_159" depart="0.00" from="edge64749" to="edge68874"/>
  <trip id="25627#16_160" depart="0.00" from="edge189532" to="edge253682"/>
  <trip id="25627#16_161" depart="0.00" from="edge93632" to="edge253801"/>
  <trip id="25628#9_162" depart="0.00" from="edge5772" to="edge253682"/>
  <trip id="25659#6_163" depart="0.00" from="edge253699" to="edge253682"/>
  <trip id="25690#3_164" depart="0.00" from="edge253705" to="edge6208"/>
  <trip id="25699#2_166" depart="0.00" from="edge189533" to="edge253682"/>
  <trip id="25699#2_167" depart="0.00" from="edge93632" to="edge61989"/>
  <trip id="25739#0_168" depart="0.00" from="edge60756" to="edge62060"/>
  <trip id="25752#0_169" depart="0.00" from="edge60756" to="edge108629"/>
  <trip id="25811#0_170" depart="0.00" from="edge60756" to="edge233"/>
  <trip id="25811#3_171" depart="0.00" from="edge60756" to="edge233"/>
  <trip id="25845#2_172" depart="0.00" from="edge140829" to="edge176345"/>
  <trip id="25850#0_173" depart="0.00" from="edge140829" to="edge175151"/>
  <trip id="26006#7_174" depart="0.00" from="edge205969" to="edge68874"/>
  <trip id="26028#5_175" depart="0.00" from="edge205969" to="edge68874"/>
  <trip id="26028#5_176" depart="0.00" from="edge208109" to="edge1919"/>
  <trip id="26071#5_177" depart="0.00" from="edge205969" to="edge68874"/>
  <trip id="26941#0_178" depart="0.00" from="edge1906" to="edge253801"/>
  <trip id="26996#4_179" depart="0.00" from="edge1906" to="edge148756"/>
  <trip id="27008#3_180" depart="0.00" from="edge140682" to="edge194063"/>
  <trip id="27034#2_182" depart="0.00" from="edge2694" to="edge222557"/>
  <trip id="27110#8_183" depart="0.00" from="edge94053" to="edge256499"/>
  <trip id="27130#3_184" depart="0.00" from="edge254348" to="edge256499"/>
  <trip id="27138#12_185" depart="0.00" from="edge207510" to="edge256499"/>
  <trip id="27138#12_186" depart="0.00" from="edge90512" to="edge209485"/>
  <trip id="27173#16_187" depart="0.00" from="edge255760" to="edge222557"/>
  <trip id="27188#3_188" depart="0.00" from="edge1906" to="edge222557"/>
  <trip id="27190#2_189" depart="0.00" from="edge206365" to="edge61989"/>
  <trip id="27251#4_190" depart="0.00" from="edge206388" to="edge222557"/>
  <trip id="27456#14_192" depart="0.00" from="edge208087" to="edge222557"/>
  <trip id="27456#14_193" depart="0.00" from="edge208678" to="edge47494"/>
  <trip id="27462#0_194" depart="0.00" from="edge186007" to="edge256499"/>
  <trip id="27480#42_195" depart="0.00" from="edge2104" to="edge222557"/>
  <trip id="27486#4_196" depart="0.00" from="edge254343" to="edge222557"/>
  <trip id="27487#3_197" depart="0.00" from="edge186007" to="edge61989"/>
  <trip id="27581#1_198" depart="0.00" from="edge140102" to="edge808"/>
  <trip id="27613#0_199" depart="0.00" from="edge62595" to="edge233"/>
  <trip id="27627#12_200" depart="0.00" from="edge3104" to="edge256499"/>
  <trip id="27629#1_201" depart="0.00" from="edge170504" to="edge256499"/>
  <trip id="27655#1_202" depart="0.00" from="edge3104" to="edge61989"/>
  <trip id="27657#20_203" depart="0.00" from="edge3105" to="edge61989"/>
  <trip id="27668#10_204" depart="0.00" from="edge1241" to="edge61989"/>
  <trip id="27727#2_205" depart="0.00" from="edge180864" to="edge97167"/>
  <trip id="27754#0_206" depart="0.00" from="edge207816" to="edge808"/>
  <trip id="27759#0_207" depart="0.00" from="edge197035" to="edge253801"/>
  <trip id="27776#4_208" depart="0.00" from="edge2090" to="edge256499"/>
  <trip id="28431#0_209" depart="0.00" from="edge60756" to="edge159122"/>
  <trip id="28612#22_210" depart="0.00" from="edge253687" to="edge253682"/>
  <trip id="28612#22_211" depart="0.00" from="edge93632" to="edge5913"/>
  <trip id="28685#2_212" depart="0.00" from="edge93632" to="edge216098"/>
  <trip id="28713#0_213" depart="0.00" from="edge168625" to="edge218184"/>
  <trip id="29030#2_214" depart="0.00" from="edge93632" to="edge109448"/>
  <trip id="29108#9_215" depart="0.00" from="edge93632" to="edge147838"/>
  <trip id="29127#3_216" depart="0.00" from="edge93632" to="edge189212"/>
  <trip id="29128#4_217" depart="0.00" from="edge253683" to="edge253682"/>
  <trip id="29128#4_218" depart="0.00" from="edge93632" to="edge257219"/>
  <trip id="29225#1_219" depart="0.00" from="edge103738" to="edge253801"/>
  <trip id="29225#1_220" depart="0.00" from="edge93632" to="edge256506"/>
  <trip id="29227#6_221" depart="0.00" from="edge176241" to="edge253801"/>
  <trip id="29227#6_222" depart="0.00" from="edge93632" to="edge151878"/>
  <trip id="29233#0_223" depart="0.00" from="edge5773" to="edge253682"/>
  <trip id="29233#0_224" depart="0.00" from="edge93632" to="edge1867"/>
  <trip id="29240#0_225" depart="0.00" from="edge253712" to="edge253682"/>
  <trip id="29274#3_226" depart="0.00" from="edge197912" to="edge253801"/>
  <trip id="29274#3_227" depart="0.00" from="edge93632" to="edge61989"/>
  <trip id="29357#0_228" depart="0.00" from="edge207829" to="edge253957"/>
  <trip id="29357#0_229" depart="0.00" from="edge168625" to="edge218085"/>
  <trip id="29357#0_230" depart="0.00" from="edge64749" to="edge68874"/>
  <trip id="29484#18_231" depart="0.00" from="edge253606" to="edge253801"/>
  <trip id="29484#18_232" depart="0.00" from="edge93632" to="edge253703"/>
  <trip id="29517#8_233" depart="0.00" from="edge197918" to="edge253801"/>
  <trip id="29517#8_234" depart="0.00" from="edge93632" to="edge161157"/>
  <trip id="29533#11_235" depart="0.00" from="edge95773" to="edge253801"/>
  <trip id="29533#11_236" depart="0.00" from="edge93632" to="edge108759"/>
  <trip id="29577#0_237" depart="0.00" from="edge51093" to="edge253801"/>
  <trip id="29645#16_238" depart="0.00" from="edge139622" to="edge253801"/>
  <trip id="29645#16_239" depart="0.00" from="edge168625" to="edge218085"/>
  <trip id="29645#16_240" depart="0.00" from="edge64749" to="edge68874"/>
  <trip id="29651#5_241" depart="0.00" from="edge5649" to="edge253801"/>
  <trip id="29651#5_242" depart="0.00" from="edge168625" to="edge218085"/>
  <trip id="29651#5_243" depart="0.00" from="edge64749" to="edge68874"/>
  <trip id="29657#2_244" depart="0.00" from="edge194990" to="edge143977"/>
  <trip id="29657#2_245" depart="0.00" from="edge93632" to="edge61989"/>
  <trip id="29667#2_246" depart="0.00" from="edge93632" to="edge78346"/>
  <trip id="29702#0_247" depart="0.00" from="edge168625" to="edge218085"/>
  <trip id="29702#0_248" depart="0.00" from="edge64749" to="edge68874"/>
  <trip id="29703#0_249" depart="0.00" from="edge93632" to="edge61989"/>
  <trip id="29741#1_250" depart="0.00" from="edge255984" to="edge218085"/>
  <trip id="29741#1_251" depart="0.00" from="edge64749" to="edge68874"/>
  <trip id="29741#1_252" depart="0.00" from="edge60756" to="edge808"/>
  <trip id="29767#4_253" depart="0.00" from="edge2807" to="edge61989"/>
  <trip id="29788#6_254" depart="0.00" from="edge257527" to="edge188841"/>
  <trip id="29854#1_255" depart="0.00" from="edge73" to="edge61989"/>
  <trip id="29960#2_256" depart="0.00" from="edge185076" to="edge1150"/>
  <trip id="30015#7_257" depart="0.00" from="edge255961" to="edge109963"/>
  <trip id="30018#1_258" depart="0.00" from="edge2095" to="edge61989"/>
  <trip id="30018#1_259" depart="0.00" from="edge205969" to="edge68874"/>
  <trip id="30018#1_260" depart="0.00" from="edge81999" to="edge182777"/>
  <trip id="30063#2_261" depart="0.00" from="edge1423" to="edge179994"/>
  <trip id="30107#7_262" depart="0.00" from="edge63988" to="edge109450"/>
  <trip id="30180#4_263" depart="0.00" from="edge256509" to="edge61989"/>
  <trip id="30242#4_264" depart="0.00" from="edge78347" to="edge253682"/>
  <trip id="30255#7_265" depart="0.00" from="edge124971" to="edge218085"/>
  <trip id="30255#7_266" depart="0.00" from="edge64749" to="edge68874"/>
  <trip id="30255#7_267" depart="0.00" from="edge208109" to="edge245422"/>
  <trip id="30483#20_268" depart="0.00" from="edge64749" to="edge68874"/>
  <trip id="30566#10_269" depart="0.00" from="edge64749" to="edge68874"/>
  <trip id="30566#10_270" depart="0.00" from="edge81999" to="edge218085"/>
  <trip id="30572#17_271" depart="0.00" from="edge64749" to="edge68874"/>
  <trip id="30572#17_272" depart="0.00" from="edge81999" to="edge218085"/>
  <trip id="30817#0_274" depart="0.00" from="edge64749" to="edge68874"/>
  <trip id="30888#2_275" depart="0.00" from="edge240935" to="edge218085"/>
  <trip id="30888#2_276" depart="0.00" from="edge64749" to="edge176165"/>
  <trip id="30890#5_277" depart="0.00" from="edge93632" to="edge61989"/>
  <trip id="30968#20_279" depart="0.00" from="edge156842" to="edge245911"/>
  <trip id="30969#4_280" depart="0.00" from="edge125704" to="edge218085"/>
  <trip id="30987#0_281" depart="0.00" from="edge156853" to="edge218085"/>
  <trip id="30987#0_282" depart="0.00" from="edge64749" to="edge68874"/>
  <trip id="30987#0_283" depart="0.00" from="edge245396" to="edge89484"/>
  <trip id="30987#0_284" depart="0.00" from="edge198936" to="edge208408"/>
  <trip id="30996#2_285" depart="0.00" from="edge162338" to="edge218085"/>
  <trip id="30996#2_286" depart="0.00" from="edge64749" to="edge68874"/>
  <trip id="30996#2_287" depart="0.00" from="edge60756" to="edge1515"/>
  <trip id="31002#1_288" depart="0.00" from="edge62467" to="edge218085"/>
  <trip id="31002#1_289" depart="0.00" from="edge64749" to="edge68874"/>
  <trip id="31002#1_290" depart="0.00" from="edge245396" to="edge89484"/>
  <trip id="31002#1_291" depart="0.00" from="edge198936" to="edge218113"/>
  <trip id="31005#3_292" depart="0.00" from="edge18765" to="edge218085"/>
  <trip id="31005#3_293" depart="0.00" from="edge64749" to="edge68874"/>
  <trip id="31005#3_294" depart="0.00" from="edge60756" to="edge2902"/>
  <trip id="31027#14_295" depart="0.00" from="edge62475" to="edge218085"/>
  <trip id="31027#14_296" depart="0.00" from="edge64749" to="edge68874"/>
  <trip id="31027#14_297" depart="0.00" from="edge208678" to="edge47494"/>
  <trip id="31102#1_298" depart="0.00" from="edge64749" to="edge68874"/>
  <trip id="31284#5_299" depart="0.00" from="edge64749" to="edge68874"/>
  <trip id="31284#5_300" depart="0.00" from="edge60756" to="edge233"/>
  <trip id="31309#0_301" depart="0.00" from="edge64749" to="edge68874"/>
  <trip id="31309#0_302" depart="0.00" from="edge208109" to="edge140843"/>
  <trip id="31341#6_303" depart="0.00" from="edge64749" to="edge176165"/>
  <trip id="31365#2_304" depart="0.00" from="edge115058" to="edge218085"/>
  <trip id="31365#2_305" depart="0.00" from="edge64749" to="edge176165"/>
  <trip id="31392#3_306" depart="0.00" from="edge64749" to="edge68874"/>
  <trip id="31846#6_307" depart="0.00" from="edge2627" to="edge2953"/>
  <trip id="31861#0_308" depart="0.00" from="edge2626" to="edge45292"/>
  <trip id="31863#2_309" depart="0.00" from="edge224421" to="edge16625"/>
  <trip id="31872#0_310" depart="0.00" from="edge51746" to="edge17770"/>
  <trip id="31966#33_312" depart="0.00" from="edge208678" to="edge47494"/>
  <trip id="32014#5_313" depart="0.00" from="edge224432" to="edge61989"/>
  <trip id="32019#11_314" depart="0.00" from="edge2625" to="edge61989"/>
  <trip id="32034#9_315" depart="0.00" from="edge250424" to="edge250429"/>
  <trip id="32034#9_316" depart="0.00" from="edge250430" to="edge61989"/>
  <trip id="32050#1_317" depart="0.00" from="edge79804" to="edge89484"/>
  <trip id="32068#1_318" depart="0.00" from="edge108827" to="edge228024"/>
  <trip id="32091#2_320" depart="0.00" from="edge60756" to="edge808"/>
  <trip id="32107#25_321" depart="0.00" from="edge133803" to="edge175498"/>
  <trip id="32121#1_322" depart="0.00" from="edge165008" to="edge89484"/>
  <trip id="32121#1_323" depart="0.00" from="edge60756" to="edge160182"/>
  <trip id="32181#2_324" depart="0.00" from="edge95925" to="edge89484"/>
  <trip id="32220#1_325" depart="0.00" from="edge60756" to="edge233"/>
  <trip id="32348#3_326" depart="0.00" from="edge108827" to="edge89484"/>
  <trip id="32364#14_328" depart="0.00" from="edge208678" to="edge47494"/>
  <trip id="32432#4_329" depart="0.00" from="edge187638" to="edge255854"/>
  <trip id="32482#3_330" depart="0.00" from="edge90526" to="edge140867"/>
  <trip id="32517#0_331" depart="0.00" from="edge199138" to="edge89484"/>
  <trip id="32534#0_332" depart="0.00" from="edge90831" to="edge253801"/>
  <trip id="32557#13_334" depart="0.00" from="edge208678" to="edge47494"/>
  <trip id="32570#4_335" depart="0.00" from="edge199138" to="edge89484"/>
  <trip id="32570#4_336" depart="0.00" from="edge208678" to="edge47494"/>
  <trip id="32586#2_337" depart="0.00" from="edge199138" to="edge89484"/>
  <trip id="32586#2_338" depart="0.00" from="edge208678" to="edge47494"/>
  <trip id="32599#6_339" depart="0.00" from="edge199138" to="edge89484"/>
  <trip id="32611#3_340" depart="0.00" from="edge139869" to="edge61989"/>
  <trip id="32683#1_341" depart="0.00" from="edge60756" to="edge233"/>
  <trip id="32714#6_342" depart="0.00" from="edge208678" to="edge47494"/>
  <trip id="32805#4_343" depart="0.00" from="edge208678" to="edge47494"/>
  <trip id="32805#15_344" depart="0.00" from="edge208678" to="edge47494"/>
  <trip id="32810#2_345" depart="0.00" from="edge250424" to="edge250429"/>
  <trip id="32810#2_346" depart="0.00" from="edge250430" to="edge61989"/>
  <trip id="32810#2_347" depart="0.00" from="edge208678" to="edge47494"/>
  <trip id="32850#1_348" depart="0.00" from="edge60756" to="edge3259"/>
  <trip id="32850#2_349" depart="0.00" from="edge250424" to="edge250429"/>
  <trip id="32850#2_350" depart="0.00" from="edge250430" to="edge144707"/>
  <trip id="32904#3_351" depart="0.00" from="edge94416" to="edge61989"/>
  <trip id="33040#3_352" depart="0.00" from="edge131160" to="edge217392"/>
  <trip id="33142#43_353" depart="0.00" from="edge218193" to="edge218085"/>
  <trip id="33142#43_354" depart="0.00" from="edge64749" to="edge68874"/>
  <trip id="33159#1_355" depart="0.00" from="edge182274" to="edge218085"/>
  <trip id="33159#1_356" depart="0.00" from="edge64749" to="edge68874"/>
  <trip id="33159#1_357" depart="0.00" from="edge245396" to="edge89484"/>
  <trip id="33159#1_358" depart="0.00" from="edge198936" to="edge257017"/>
  <trip id="33161#0_359" depart="0.00" from="edge62364" to="edge204197"/>
  <trip id="33161#0_360" depart="0.00" from="edge215557" to="edge74208"/>
  <trip id="33231#31_361" depart="0.00" from="edge204027" to="edge85335"/>
  <trip id="33292#6_362" depart="0.00" from="edge125774" to="edge204197"/>
  <trip id="33292#6_363" depart="0.00" from="edge64749" to="edge68874"/>
  <trip id="33299#17_364" depart="0.00" from="edge62519" to="edge203889"/>
  <trip id="33299#20_365" depart="0.00" from="edge154197" to="edge246550"/>
  <trip id="33325#2_366" depart="0.00" from="edge85335" to="edge204197"/>
  <trip id="33325#2_367" depart="0.00" from="edge64749" to="edge68874"/>
  <trip id="33325#2_368" depart="0.00" from="edge60756" to="edge257223"/>
  <trip id="33819#9_369" depart="0.00" from="edge16622" to="edge217002"/>
  <trip id="33835#2_370" depart="0.00" from="edge67000" to="edge223163"/>
  <trip id="33865#19_371" depart="0.00" from="edge16535" to="edge217004"/>
  <trip id="33888#26_372" depart="0.00" from="edge64747" to="edge218085"/>
  <trip id="33891#4_374" depart="0.00" from="edge61925" to="edge68874"/>
  <trip id="33891#4_375" depart="0.00" from="edge245396" to="edge89484"/>
  <trip id="33891#4_376" depart="0.00" from="edge198936" to="edge218149"/>
  <trip id="33962#1_377" depart="0.00" from="edge217359" to="edge218085"/>
  <trip id="33962#1_378" depart="0.00" from="edge64749" to="edge68874"/>
  <trip id="33962#1_379" depart="0.00" from="edge60756" to="edge233"/>
  <trip id="33981#1_380" depart="0.00" from="edge208098" to="edge218085"/>
  <trip id="33981#1_381" depart="0.00" from="edge64749" to="edge176165"/>
  <trip id="34063#4_382" depart="0.00" from="edge228493" to="edge74211"/>
  <trip id="34134#2_383" depart="0.00" from="edge132624" to="edge218085"/>
  <trip id="34134#2_384" depart="0.00" from="edge64749" to="edge68874"/>
  <trip id="34224#2_385" depart="0.00" from="edge45938" to="edge194656"/>
  <trip id="34267#1_386" depart="0.00" from="edge16626" to="edge89484"/>
  <trip id="34295#0_387" depart="0.00" from="edge94558" to="edge218085"/>
  <trip id="34295#0_388" depart="0.00" from="edge64749" to="edge68874"/>
  <trip id="34295#0_389" depart="0.00" from="edge60756" to="edge253801"/>
  <trip id="34295#0_390" depart="0.00" from="edge250014" to="edge211920"/>
  <trip id="34299#0_391" depart="0.00" from="edge62401" to="edge218085"/>
  <trip id="34299#0_392" depart="0.00" from="edge64749" to="edge68874"/>
  <trip id="34299#0_393" depart="0.00" from="edge208678" to="edge47494"/>
  <trip id="34305#1_394" depart="0.00" from="edge62427" to="edge218085"/>
  <trip id="34305#1_395" depart="0.00" from="edge64749" to="edge68874"/>
  <trip id="34323#4_396" depart="0.00" from="edge218129" to="edge218085"/>
  <trip id="34323#4_397" depart="0.00" from="edge64749" to="edge68874"/>
  <trip id="34323#4_398" depart="0.00" from="edge245396" to="edge89484"/>
  <trip id="34323#4_399" depart="0.00" from="edge198936" to="edge62411"/>
  <trip id="34403#5_400" depart="0.00" from="edge208655" to="edge2859"/>
  <trip id="34447#3_401" depart="0.00" from="edge256015" to="edge61989"/>
  <trip id="34504#19_402" depart="0.00" from="edge1275" to="edge218085"/>
  <trip id="34504#19_403" depart="0.00" from="edge64749" to="edge68874"/>
  <trip id="34504#19_404" depart="0.00" from="edge139865" to="edge66859"/>
  <trip id="34536#7_405" depart="0.00" from="edge255936" to="edge176307"/>
  <trip id="34562#25_406" depart="0.00" from="edge2866" to="edge89484"/>
  <trip id="34626#1_407" depart="0.00" from="edge17766" to="edge61989"/>
  <trip id="34630#3_408" depart="0.00" from="edge140894" to="edge61989"/>
  <trip id="34645#3_409" depart="0.00" from="edge148780" to="edge89484"/>
  <trip id="34645#3_410" depart="0.00" from="edge60756" to="edge81065"/>
  <trip id="34648#2_411" depart="0.00" from="edge192415" to="edge89484"/>
  <trip id="34648#2_412" depart="0.00" from="edge60756" to="edge808"/>
  <trip id="34655#12_413" depart="0.00" from="edge192410" to="edge2885"/>
  <trip id="34688#1_414" depart="0.00" from="edge192409" to="edge89484"/>
  <trip id="34697#4_415" depart="0.00" from="edge104597" to="edge89484"/>
  <trip id="34776#3_416" depart="0.00" from="edge2767" to="edge89484"/>
  <trip id="35190#4_417" depart="0.00" from="edge208678" to="edge47494"/>
  <trip id="35956#2_419" depart="0.00" from="edge198880" to="edge61989"/>
  <trip id="35987#0_420" depart="0.00" from="edge93632" to="edge808"/>
  <trip id="36032#3_421" depart="0.00" from="edge93632" to="edge808"/>
  <trip id="36090#2_422" depart="0.00" from="edge93632" to="edge808"/>
  <trip id="36180#10_423" depart="0.00" from="edge196452" to="edge214771"/>
  <trip id="36202#1_424" depart="0.00" from="edge198880" to="edge134493"/>
  <trip id="36206#5_425" depart="0.00" from="edge196452" to="edge253801"/>