<?xml version="1.0" encoding="UTF-8"?>

<!-- generated on 2023-09-01 19:03:28 by Eclipse SUMO duarouter Version 1.18.0
<configuration xmlns:xsi="http://www.w3.org/2001/XMLSchema-instance" xsi:noNamespaceSchemaLocation="http://sumo.dlr.de/xsd/duarouterConfiguration.xsd">

    <input>
        <net-file value="gmdata.nosync/princess_rd_pt_experiments/run20/princess_rd_run20_net.net.xml"/>
        <route-files value="gmdata.nosync/princess_rd_pt_experiments/run20/princess_rd_run20_trips__reduced.rou.xml"/>
    </input>

    <output>
        <output-file value="gmdata.nosync/princess_rd_pt_experiments/run20/princess_rd_run20_routes.rou.xml"/>
    </output>

    <processing>
        <repair value="true"/>
    </processing>

    <report>
        <ignore-errors value="true"/>
    </report>

</configuration>
-->

<routes xmlns:xsi="http://www.w3.org/2001/XMLSchema-instance" xsi:noNamespaceSchemaLocation="http://sumo.dlr.de/xsd/routes_file.xsd">
    <vehicle id="29767#4_253" depart="0.00">
        <route edges="edge2807 edge2805 edge255971 edge85642 edge203742 edge206481 edge218876 edge61183 edge256015 edge204343 edge255455 edge245979 edge116459 edge208667 edge255864 edge140597 edge197970 edge81562 edge140596 edge140598 edge806 edge116193 edge116192 edge61989"/>
    </vehicle>
    <vehicle id="27130#3_184" depart="0.00">
        <route edges="edge254348 edge254342 edge254346 edge85524 edge254345 edge254343 edge189829 edge1098 edge186006 edge186007 edge256564 edge256596 edge216015 edge256565 edge256499"/>
    </vehicle>
    <vehicle id="37128#2_451" depart="0.00">
        <route edges="edge73623 edge72 edge219259 edge140677 edge140676 edge140678 edge107354 edge140679 edge107353 edge64718 edge219260 edge219257 edge1422 edge140589 edge136627 edge136628 edge62071 edge62072 edge144835 edge140587 edge786 edge256663 edge199091 edge200051 edge256612 edge103739 edge103742 edge256686 edge241701 edge241704 edge256685 edge241702 edge88078 edge148776 edge148773 edge148777 edge60818 edge60816 edge256885 edge170815 edge170816 edge256887 edge207659 edge161169 edge241706 edge195727 edge156175 edge255746 edge91232 edge5947 edge143950 edge5948 edge233"/>
    </vehicle>
    <vehicle id="29577#0_237" depart="0.00">
        <route edges="edge51093 edge51094 edge73453 edge197918 edge5258 edge216100 edge198046 edge253799 edge253800 edge253801"/>
    </vehicle>
    <vehicle id="20936#10_75" depart="0.00">
        <route edges="edge198880 edge5945 edge93115 edge5946 edge787 edge91229 edge88075 edge256886 edge60817 edge88076 edge166667 edge148778 edge148781 edge140579 edge5475 edge140584 edge24895 edge24896 edge140585 edge144715 edge241705 edge256598 edge253736 edge2044 edge256599 edge256600 edge216022 edge256601 edge256602 edge256603 edge256604 edge213978 edge217219 edge213850 edge255683 edge255685 edge213849 edge1038 edge50980 edge144716 edge256729 edge256652 edge256731 edge50979 edge256583 edge256651 edge208576 edge1656 edge256703 edge1661 edge1734"/>
    </vehicle>
    <vehicle id="27754#0_206" depart="0.00">
        <route edges="edge207816 edge180690 edge203682 edge113133 edge62595 edge255690 edge255691 edge62596 edge255692 edge62598 edge255693 edge256436 edge170505 edge256438 edge256444 edge170506 edge207508 edge256446 edge118365 edge183542 edge148803 edge64711 edge256917 edge64710 edge257077 edge197031 edge197035 edge197032 edge172224 edge180864 edge136432 edge135662 edge85523 edge194130 edge187627 edge30614 edge30615 edge140554 edge140553 edge72928 edge72929 edge147663 edge203808 edge85521 edge256680 edge206354 edge206353 edge255680 edge206351 edge255679 edge255681 edge88073 edge207491 edge216043 edge256884 edge140582 edge127868 edge139301 edge140583 edge1844 edge255753 edge88076 edge60818 edge60816 edge256885 edge170815 edge170816 edge256887 edge207659 edge161169 edge241706 edge195727 edge156175 edge255746 edge91232 edge5943 edge5944 edge808"/>
    </vehicle>
    <vehicle id="71162#2_543" depart="0.00">
        <route edges="edge211943 edge104 edge103"/>
    </vehicle>
    <vehicle id="33325#2_367" depart="0.00">
        <route edges="edge64749 edge63715 edge205966 edge205963 edge61925 edge217382 edge217409 edge245928 edge68874"/>
    </vehicle>
    <vehicle id="39018#4_509" depart="0.00">
        <route edges="edge93632 edge5942 edge143949 edge93116 edge5946 edge787 edge91229 edge88075 edge256886 edge60817 edge148772 edge255754 edge60819 edge133637 edge170299 edge241703 edge103741 edge103740 edge256661 edge199094 edge144732 edge62070 edge62069 edge24898 edge136626 edge203742 edge206481 edge218876 edge61183 edge256015 edge204343 edge255455 edge245979 edge116459 edge208667 edge255864 edge140597 edge197970 edge81562 edge140596 edge140598 edge806 edge116193 edge116192 edge61989"/>
    </vehicle>
    <vehicle id="38662#0_497" depart="0.00">
        <route edges="edge257460 edge257237 edge256104 edge256913 edge199202 edge256912 edge256505 edge2031 edge256484 edge253686 edge62008 edge256103 edge255769 edge117522 edge255770 edge255768 edge255767 edge255766 edge255764 edge143913 edge143914 edge206091 edge206093 edge131160 edge62007 edge62009 edge148730 edge143981 edge1785 edge62012 edge216498 edge164864 edge218301 edge62013 edge93170 edge218300 edge62018 edge182274 edge218166 edge218299 edge218290 edge195001 edge179296 edge204399 edge218154 edge218289 edge217391 edge218292 edge218294 edge215576 edge218150 edge218296 edge218291 edge218298 edge62025 edge62027 edge218288 edge153313 edge132624 edge217419 edge245930 edge228490 edge215575 edge179750 edge18764 edge239337 edge162373 edge125704 edge162374 edge125705 edge62497 edge162368 edge245911 edge245912 edge245909 edge245908 edge17864 edge245907 edge218085"/>
    </vehicle>
    <vehicle id="100488#1_683" depart="0.00">
        <route edges="edge205969 edge68874"/>
    </vehicle>
    <vehicle id="21098#3_77" depart="0.00">
        <route edges="edge240935 edge72933 edge249977 edge192928 edge249983 edge239888 edge249984 edge72932 edge239883 edge198781 edge239885 edge239886 edge185971 edge77 edge239887 edge240789 edge257509 edge240790"/>
    </vehicle>
    <vehicle id="73842#29_574" depart="0.00">
        <route edges="edge240935 edge72933 edge249977 edge192928 edge249983 edge239888 edge249984 edge72932 edge239883 edge198781 edge239885 edge239886 edge185971 edge78 edge240776 edge240777"/>
    </vehicle>
    <vehicle id="83712#2_649" depart="0.00">
        <route edges="edge239284 edge254365 edge254363 edge187551 edge255495 edge54300 edge254370 edge252143 edge252141 edge254360 edge252139 edge252137 edge254372 edge252136 edge222830 edge254373 edge254374 edge252129 edge254376 edge252122 edge222821 edge54318 edge87964 edge169460 edge196067 edge169461 edge252184 edge157054 edge157051 edge157052 edge140894 edge196076 edge15342 edge187118 edge194157 edge140895 edge224417 edge140873 edge64388 edge216093 edge170213 edge216874 edge197973 edge197969 edge2935 edge140597 edge197970 edge81562 edge140596 edge140598 edge806 edge116193 edge116192 edge61989"/>
    </vehicle>
    <vehicle id="88093#6_672" depart="0.00">
        <route edges="edge140829 edge140830 edge140822 edge69382 edge163011 edge192912 edge256552 edge228032 edge250413 edge48019 edge48012 edge187405 edge48014 edge48016 edge66999 edge196499 edge181572 edge181571 edge251343 edge193922 edge189618 edge257012 edge246581 edge245451 edge225704 edge245402 edge140845 edge64156 edge214766 edge250423 edge245446 edge217002"/>
    </vehicle>
    <vehicle id="27627#12_200" depart="0.00">
        <route edges="edge3104 edge255759 edge255758 edge2121 edge256436 edge170505 edge256438 edge256444 edge170506 edge207508 edge256446 edge118365 edge183542 edge148803 edge64711 edge256917 edge64710 edge957 edge256881 edge256982 edge256954 edge256914 edge1846 edge256596 edge216015 edge256565 edge256499"/>
    </vehicle>
    <vehicle id="31863#2_309" depart="0.00">
        <route edges="edge224421 edge224431 edge64385 edge17759 edge245988 edge224428 edge219794 edge75762 edge140595 edge140594 edge206462 edge116457 edge256029 edge255867 edge256028 edge256026 edge256025 edge255871 edge192425 edge256033 edge255876 edge180696 edge255877 edge256906 edge255935 edge256431 edge2849 edge255943 edge139878 edge139880 edge62721 edge2 edge1754 edge198278 edge256658 edge257561 edge1 edge185230 edge181482 edge196498 edge208256 edge175471 edge217370 edge78083 edge186419 edge170239 edge216158 edge246569 edge180995 edge16619 edge217374 edge16626 edge16625"/>
    </vehicle>
    <vehicle id="33891#4_376" depart="0.00">
        <route edges="edge198936 edge140830 edge140822 edge69382 edge163011 edge192912 edge256552 edge228032 edge250413 edge48019 edge69383 edge170238 edge172126 edge215213 edge176307 edge189833 edge213452 edge171873 edge139875 edge139876 edge69381 edge139881 edge139879 edge62721 edge2 edge1754 edge198278 edge256658 edge257561 edge1 edge185230 edge181482 edge196498 edge208256 edge175471 edge217370 edge78083 edge186419 edge140777 edge62350 edge218123 edge218734 edge218132 edge215582 edge218120 edge140776 edge140775 edge62383 edge218153 edge218152 edge218117 edge218118 edge218165 edge178800 edge62404 edge218140 edge218130 edge218124 edge218121 edge62406 edge218129 edge218149"/>
    </vehicle>
    <vehicle id="34323#4_399" depart="0.00">
        <route edges="edge198936 edge140830 edge140822 edge69382 edge163011 edge192912 edge256552 edge228032 edge250413 edge48019 edge69383 edge170238 edge172126 edge215213 edge176307 edge189833 edge213452 edge171873 edge139875 edge139876 edge69381 edge139881 edge139879 edge62721 edge2 edge1754 edge198278 edge256658 edge257561 edge1 edge185230 edge181482 edge196498 edge208256 edge175471 edge217370 edge78083 edge186419 edge140777 edge62350 edge218123 edge218734 edge218132 edge215582 edge218120 edge140776 edge140775 edge62383 edge218153 edge218152 edge218117 edge218118 edge218165 edge178800 edge62404 edge218140 edge218130 edge218124 edge62411"/>
    </vehicle>
    <vehicle id="83699#6_645" depart="0.00">
        <route edges="edge4949 edge254359 edge4939 edge252136 edge4937 edge195750 edge195749 edge252132 edge195740 edge195746 edge252189 edge252138 edge252140 edge7857 edge222774 edge215655 edge238500 edge215657 edge238459 edge247293 edge199233 edge200389 edge222803 edge222814 edge96498 edge199557 edge245941 edge245939 edge199287 edge238456 edge198828 edge222557"/>
    </vehicle>
    <vehicle id="76704#1_592" depart="0.00">
        <route edges="edge93632 edge5942 edge143949 edge93116 edge5946 edge787 edge91229 edge88075 edge256886 edge60817 edge148772 edge255754 edge60819 edge133637 edge170299 edge241703 edge103741 edge103740 edge256661 edge199094 edge144732 edge62070 edge62069 edge24898 edge136626 edge203742 edge206481 edge218876 edge61183 edge256015 edge204343 edge255455 edge245979 edge116459 edge208667 edge2934 edge255863 edge94063 edge255869 edge173743 edge148780 edge189619 edge255945 edge186042 edge255944 edge216082 edge255943 edge139878 edge139880 edge62721 edge2 edge1754 edge198278 edge256658 edge257561 edge140781 edge140782 edge66999 edge196499 edge181572 edge181571 edge251343 edge193922 edge189618 edge257012 edge246581 edge245451 edge225704 edge245402 edge140845 edge64156 edge214766 edge250423 edge245446 edge217002 edge217005 edge185616 edge217003 edge217323 edge217004 edge176346"/>
    </vehicle>
    <vehicle id="34323#4_397" depart="0.00">
        <route edges="edge64749 edge63715 edge205966 edge205963 edge61925 edge217382 edge217409 edge245928 edge68874"/>
    </vehicle>
    <vehicle id="19456#14_35" depart="0.00">
        <route edges="edge140826 edge69384 edge89484"/>
    </vehicle>
    <vehicle id="18832#0_6" depart="0.00">
        <route edges="edge205969 edge68874"/>
    </vehicle>
    <vehicle id="75562#10_584" depart="0.00">
        <route edges="edge240935 edge72933 edge249977 edge192928 edge249983 edge239888 edge249984 edge3356 edge194983 edge239889 edge250002 edge257518 edge196326 edge250006 edge72931 edge186138 edge208904 edge240918 edge240924 edge196328 edge238109 edge72930 edge209963 edge253611 edge183480 edge3030 edge1318 edge1321 edge62326 edge176238 edge256889 edge196996 edge255811 edge255815 edge196998 edge196997 edge197000 edge196999 edge255818 edge216515 edge181395 edge216509 edge255825 edge183861 edge72934 edge255829 edge256567 edge256574 edge62313 edge189224 edge189488 edge216503 edge218205 edge62521 edge62522 edge218193 edge188717 edge218202 edge218179 edge218208 edge141047 edge113232 edge182273 edge62013 edge93170 edge218300 edge62018 edge182274 edge218166 edge218299 edge218290 edge195001 edge179296 edge204399 edge218154 edge218289 edge217391 edge218292 edge218294 edge215576 edge218150 edge218296 edge218291 edge218298 edge62025 edge62027 edge218288 edge153313 edge132624 edge217419 edge245930 edge228490 edge215575 edge179750 edge18764 edge239337 edge162373 edge125704 edge162374 edge125705 edge62497 edge162368 edge245911 edge245912 edge245909 edge245908 edge17864 edge245907 edge218085"/>
    </vehicle>
    <vehicle id="32348#3_326" depart="0.00">
        <route edges="edge108827 edge189619 edge255945 edge186042 edge255944 edge216082 edge255943 edge139878 edge139880 edge62721 edge2 edge1754 edge198278 edge256658 edge257561 edge140781 edge140782 edge66999 edge196499 edge181572 edge181571 edge251343 edge193922 edge189618 edge257012 edge246581 edge245451 edge225704 edge245402 edge140845 edge217006 edge140844 edge176339 edge245937 edge245343 edge140843 edge140842 edge140841 edge140840 edge140839 edge140838 edge206045 edge140827 edge89484"/>
    </vehicle>
    <vehicle id="25134#2_135" depart="0.00">
        <route edges="edge256479 edge255786 edge255787 edge255788 edge92774 edge256478 edge199632 edge176237 edge117523 edge255785 edge256477 edge255542 edge170231 edge98313 edge100357 edge195110 edge181341 edge253609 edge196127 edge253614 edge253616 edge217220 edge193869 edge173299 edge170123 edge255544 edge255778 edge1319 edge1321 edge62326 edge176238 edge256889 edge196996 edge255811 edge255815 edge196998 edge196997 edge197000 edge196999 edge255818 edge216515 edge181395"/>
    </vehicle>
    <vehicle id="22001#10_88" depart="0.00">
        <route edges="edge216046 edge179662 edge255736 edge3147 edge255724 edge255728 edge255730 edge255729 edge3157"/>
    </vehicle>
    <vehicle id="78317#5_608" depart="0.00">
        <route edges="edge208109 edge215755 edge181697 edge245452 edge225705 edge245427 edge49798 edge246579 edge245481 edge140194 edge84281 edge84282 edge246578 edge217394 edge246581 edge245451 edge225704 edge245402 edge140845 edge64156"/>
    </vehicle>
    <vehicle id="21966#2_85" depart="0.00">
        <route edges="edge208678 edge140109 edge115819 edge134373 edge47494"/>
    </vehicle>
    <vehicle id="29225#1_220" depart="0.00">
        <route edges="edge93632 edge5942 edge143949 edge93116 edge5946 edge787 edge91229 edge88075 edge256886 edge60817 edge148772 edge255754 edge60819 edge133637 edge170299 edge241703 edge103741 edge103740 edge256661 edge93832 edge199095 edge100064 edge144834 edge1149 edge255651 edge255650 edge255647 edge256662 edge255648 edge255646 edge2025 edge2026 edge256491 edge63987 edge63988 edge256506"/>
    </vehicle>
    <vehicle id="37598#0_465" depart="0.00">
        <route edges="edge60756 edge149106 edge149105 edge64390 edge144353 edge90523 edge81561 edge198976 edge255868 edge116458 edge256034 edge160741 edge256021 edge94008 edge208653 edge61184 edge256452 edge203741 edge140592 edge140593 edge136628 edge62071 edge62072 edge144835 edge140587 edge786 edge256663 edge199091 edge200051 edge256612 edge103739 edge103742 edge256686 edge241701 edge241704 edge256685 edge241702 edge88078 edge148776 edge148773 edge148777 edge166667 edge148778 edge148781 edge140579 edge5475 edge140584 edge24895 edge24896 edge140585 edge144715 edge241705 edge256598 edge253736 edge144500 edge197079 edge161171 edge214003 edge253743 edge253734 edge203790 edge88081 edge189515 edge253733 edge186892 edge186893 edge253850 edge253811 edge197913 edge213107 edge253808 edge170161 edge5258 edge216100 edge198046 edge253799 edge253800 edge253801"/>
    </vehicle>
    <vehicle id="29741#1_252" depart="0.00">
        <route edges="edge60756 edge149106 edge149105 edge64390 edge144353 edge90523 edge81561 edge198976 edge255868 edge116458 edge256034 edge160741 edge256021 edge94008 edge208653 edge61184 edge256452 edge203741 edge140592 edge140593 edge136628 edge62071 edge62072 edge144835 edge140587 edge786 edge256663 edge199091 edge200051 edge256612 edge103739 edge103742 edge256686 edge241701 edge241704 edge256685 edge241702 edge88078 edge148776 edge148773 edge148777 edge60818 edge60816 edge256885 edge170815 edge170816 edge256887 edge207659 edge161169 edge241706 edge195727 edge156175 edge255746 edge91232 edge5943 edge5944 edge808"/>
    </vehicle>
    <vehicle id="38650#9_496" depart="0.00">
        <route edges="edge64749 edge63715 edge205966 edge205963 edge61925 edge217382 edge217409 edge245928 edge68874"/>
    </vehicle>
    <vehicle id="85436#11_660" depart="0.00">
        <route edges="edge252147 edge255491 edge175752 edge16758 edge16757 edge222819 edge252191 edge255502 edge54300 edge254370 edge252143 edge252141 edge254360 edge7927 edge252140 edge7857 edge222774 edge215655 edge238500 edge215657 edge238459 edge247293 edge199233 edge200389 edge222803 edge222814 edge96498 edge199557 edge245941 edge245939 edge199287 edge238456 edge198828 edge222557"/>
    </vehicle>
    <vehicle id="31966#33_312" depart="0.00">
        <route edges="edge208678 edge140109 edge115819 edge134373 edge47494"/>
    </vehicle>
    <vehicle id="78190#8_606" depart="0.00">
        <route edges="edge140829 edge140830 edge140822 edge69382 edge163011 edge192912 edge256552 edge228032 edge250413 edge48019"/>
    </vehicle>
    <vehicle id="36610#13_434" depart="0.00">
        <route edges="edge93632 edge5942 edge143949 edge93116 edge5946 edge787 edge91229 edge88075 edge256886 edge60817 edge88076 edge166667 edge148778 edge148781 edge140579 edge5475 edge140584 edge24895 edge24896 edge140585 edge144715 edge241705 edge256598 edge253736 edge144500 edge197079 edge161171 edge214003 edge253743 edge253734 edge203790 edge5481 edge217229 edge219063 edge217232 edge224851 edge256734 edge256841 edge182187 edge197899 edge197900 edge197898 edge217213 edge197897 edge197896 edge256503 edge206772 edge256727 edge217223 edge148758 edge148756 edge148755 edge203791 edge256717 edge178117 edge197058 edge197890 edge256728 edge1642 edge206089 edge206090 edge88740 edge197877 edge197878 edge256718 edge1649"/>
    </vehicle>
    <vehicle id="25811#0_170" depart="0.00">
        <route edges="edge60756 edge149106 edge149105 edge64390 edge144353 edge90523 edge81561 edge198976 edge255868 edge116458 edge256034 edge160741 edge256021 edge94008 edge208653 edge61184 edge256452 edge203741 edge140592 edge140593 edge136628 edge62071 edge62072 edge144835 edge140587 edge786 edge256663 edge199091 edge200051 edge256612 edge103739 edge103742 edge256686 edge241701 edge241704 edge256685 edge241702 edge88078 edge148776 edge148773 edge148777 edge60818 edge60816 edge256885 edge170815 edge170816 edge256887 edge207659 edge161169 edge241706 edge195727 edge156175 edge255746 edge91232 edge5947 edge143950 edge5948 edge233"/>
    </vehicle>
    <vehicle id="87910#10_671" depart="0.00">
        <route edges="edge93632 edge5942 edge143949 edge93116 edge5946 edge787 edge91229 edge88075 edge256886 edge60817 edge148772 edge255754 edge60819 edge133637 edge170299 edge241703 edge103741 edge103740 edge256661 edge199094 edge144732 edge62070 edge62069 edge24898 edge136626 edge203742 edge206481 edge218876 edge61183 edge256015 edge204343 edge255455 edge245979 edge116459 edge208667 edge255864 edge140597 edge197970 edge81562 edge140596 edge140598 edge806 edge116193 edge116192 edge61989"/>
    </vehicle>
    <vehicle id="38472#0_488" depart="0.00">
        <route edges="edge1725 edge256175 edge210849 edge256145 edge256143 edge256177 edge204401 edge204388 edge256147 edge180922 edge198565 edge204258 edge180920 edge206426 edge204203 edge140680 edge88065 edge253404 edge256094 edge253403 edge256095 edge206422 edge206421 edge253409 edge140678 edge107354 edge140679 edge107353 edge64718 edge219260 edge219257 edge1422 edge140589 edge136626 edge203742 edge206481 edge218876 edge61183 edge256015 edge204343 edge255455 edge245979 edge116459 edge208667 edge255864 edge140597 edge197970 edge81562 edge140596 edge140598 edge806 edge116193 edge116192 edge61989"/>
    </vehicle>
    <vehicle id="19349#11_22" depart="0.00">
        <route edges="edge60756 edge149106 edge149105 edge64390 edge144353 edge90523 edge81561 edge198976 edge255868 edge116458 edge256034 edge160741 edge256021 edge94008 edge208653 edge61184 edge2094 edge256451 edge50843 edge185583"/>
    </vehicle>
    <vehicle id="32586#2_338" depart="0.00">
        <route edges="edge208678 edge140109 edge115819 edge134373 edge47494"/>
    </vehicle>
    <vehicle id="19384#9_27" depart="0.00">
        <route edges="edge140829 edge140830 edge140822 edge69382 edge163011 edge192912 edge256552 edge228032 edge250413 edge48019 edge48012 edge187405 edge48014 edge48016 edge66999 edge196499 edge181572 edge181571 edge251343 edge193922 edge189618 edge257012 edge246581 edge245451 edge49794 edge245444 edge225705 edge245427 edge49798 edge246579 edge245481 edge140194 edge140847 edge84280 edge84284 edge84286 edge147940 edge140849 edge84283 edge153312 edge218872 edge198743 edge218288 edge153313 edge132624 edge217419 edge245930 edge228490 edge215575 edge179750 edge245314 edge215574 edge143983 edge218088 edge218076 edge62505 edge217367 edge218159 edge62359 edge203889 edge88694 edge217363 edge204385 edge62363 edge178424 edge218073 edge192157 edge62474 edge218087 edge204197"/>
    </vehicle>
    <vehicle id="36816#18_446" depart="0.00">
        <route edges="edge96005 edge96004 edge197890 edge256728 edge5486 edge177103 edge197057 edge182253 edge256713 edge88749 edge1648 edge750 edge184124 edge257240 edge751"/>
    </vehicle>
    <vehicle id="36462#4_429" depart="0.00">
        <route edges="edge93632 edge5942 edge143949 edge93116 edge5946 edge787 edge91229 edge88075 edge256886 edge60817 edge148772 edge255754 edge60819 edge133637 edge170299 edge241703 edge103741 edge103740 edge1733 edge93835 edge256649 edge256636 edge144725 edge144724 edge168331 edge216513 edge148763 edge144728 edge216519 edge1667 edge1513 edge168328 edge144836 edge1515 edge1673 edge256688 edge256687 edge168329 edge1812 edge1813 edge1814"/>
    </vehicle>
    <vehicle id="67664#4_536" depart="0.00">
        <route edges="edge93632 edge5942 edge143949 edge93116 edge5946 edge787 edge91229 edge88075 edge256886 edge60817 edge148772 edge255754 edge60819 edge133637 edge170299 edge241703 edge103741 edge103740 edge256661 edge199094 edge144732 edge62070 edge62069 edge24898 edge136626 edge203742 edge206481 edge218876 edge61183 edge256015 edge204343 edge255455 edge245979 edge116459 edge208667 edge255864 edge140597 edge197970 edge81562 edge140596 edge140598 edge806 edge116193 edge116192 edge61989"/>
    </vehicle>
    <vehicle id="31284#5_300" depart="0.00">
        <route edges="edge60756 edge149106 edge149105 edge64390 edge144353 edge90523 edge81561 edge198976 edge255868 edge116458 edge256034 edge160741 edge256021 edge94008 edge208653 edge61184 edge256452 edge203741 edge140592 edge140593 edge136628 edge62071 edge62072 edge144835 edge140587 edge786 edge256663 edge199091 edge200051 edge256612 edge103739 edge103742 edge256686 edge241701 edge241704 edge256685 edge241702 edge88078 edge148776 edge148773 edge148777 edge60818 edge60816 edge256885 edge170815 edge170816 edge256887 edge207659 edge161169 edge241706 edge195727 edge156175 edge255746 edge91232 edge5947 edge143950 edge5948 edge233"/>
    </vehicle>
    <vehicle id="73932#1_577" depart="0.00">
        <route edges="edge240935 edge72933 edge249977 edge192928 edge249983 edge239888 edge249984 edge72932 edge239883 edge198781 edge239885 edge239886 edge185971 edge78 edge240776 edge240777"/>
    </vehicle>
    <vehicle id="26941#0_178" depart="0.00">
        <route edges="edge1906 edge256563 edge1243 edge200315 edge256916 edge254348 edge254342 edge254346 edge85524 edge254345 edge254343 edge189829 edge1158 edge183542 edge148803 edge64711 edge256917 edge64710 edge257077 edge197031 edge197035 edge197032 edge172224 edge180864 edge136432 edge135662 edge85523 edge194130 edge187627 edge30614 edge30615 edge140554 edge140553 edge72928 edge72929 edge147663 edge203808 edge85521 edge256680 edge206354 edge206353 edge255680 edge206351 edge255679 edge255681 edge88073 edge207491 edge216043 edge256884 edge140582 edge127868 edge139301 edge140583 edge1844 edge255753 edge88076 edge166667 edge148778 edge148781 edge140579 edge5475 edge140584 edge24895 edge24896 edge140585 edge144715 edge241705 edge256598 edge253736 edge144500 edge197079 edge161171 edge214003 edge253743 edge253734 edge203790 edge88081 edge189515 edge253733 edge186892 edge186893 edge253850 edge253811 edge197913 edge213107 edge253808 edge170161 edge5258 edge216100 edge198046 edge253799 edge253800 edge253801"/>
    </vehicle>
    <vehicle id="27138#12_186" depart="0.00">
        <route edges="edge90512 edge141556 edge141558 edge140124 edge94203 edge90739 edge209479 edge66234 edge196781 edge209485"/>
    </vehicle>
    <vehicle id="20483#3_70" depart="0.00">
        <route edges="edge60756 edge149106 edge149105 edge64390 edge144353 edge90523 edge81561 edge198976 edge255868 edge116458 edge256034 edge160741 edge256021 edge94008 edge208653 edge61184 edge256452 edge203741 edge140592 edge140593 edge136628 edge62071 edge62072 edge144835 edge140587 edge786 edge256663 edge199091 edge200051 edge256612 edge103739 edge103742 edge256686 edge241701 edge241704 edge256685 edge241702 edge88078 edge148776 edge148773 edge148777 edge166667 edge148778 edge148781 edge140579 edge5475 edge140584 edge24895 edge24896 edge140585 edge144715 edge241705 edge256598 edge253736 edge144500 edge197079 edge161171 edge214003 edge253743 edge253734 edge203790 edge5481 edge217229 edge219063 edge217232 edge224851 edge256734 edge256841 edge182187"/>
    </vehicle>
    <vehicle id="36650#20_437" depart="0.00">
        <route edges="edge255645 edge168330 edge1732 edge67475 edge214791 edge256632 edge1729 edge217212 edge222036 edge256637 edge1731 edge256662 edge255648 edge255646 edge2025 edge2026 edge256491 edge63987 edge63988 edge256506 edge256509 edge217126 edge13631 edge199093 edge144833 edge93833 edge247555 edge206407 edge225038 edge256827 edge219254 edge219253 edge208645 edge256512 edge256003 edge204294 edge255956 edge204293 edge255957 edge204291 edge256007 edge204316 edge1153 edge255953 edge192423 edge148780 edge189619 edge255945 edge186042 edge255944 edge216082 edge255943 edge139878 edge139880 edge62721 edge2 edge1754 edge198278 edge256658 edge257561 edge140781 edge140782 edge66999 edge196499 edge181572 edge181571 edge251343 edge193922 edge189618 edge257012 edge246581 edge245451 edge225704 edge245402 edge140845 edge64156 edge214766 edge250423 edge245446"/>
    </vehicle>
    <vehicle id="28713#0_213" depart="0.00">
        <route edges="edge168625 edge199639 edge199640 edge253688 edge253687 edge170230 edge143910 edge62008 edge256103 edge255769 edge117522 edge255770 edge255768 edge255767 edge255766 edge255764 edge284 edge92775 edge94025 edge189754 edge216521 edge175813 edge255802 edge255804 edge255806 edge257212 edge255805 edge195524 edge72934 edge255829 edge256567 edge256574 edge62313 edge189224 edge189488 edge65034 edge218181 edge218184"/>
    </vehicle>
    <vehicle id="75559#23_582" depart="0.00">
        <route edges="edge240935 edge72933 edge249977 edge192928 edge249983 edge239888 edge249984 edge3356 edge194983 edge239889 edge250002 edge257518 edge196326 edge250006 edge72931 edge186138 edge208904 edge240918 edge240924 edge196328 edge238109 edge72930 edge209963 edge253611 edge183480 edge3030 edge1318 edge1321 edge62326 edge176238 edge256889 edge196996 edge255811 edge255815 edge196998 edge196997 edge197000 edge196999 edge255818 edge216515 edge181395 edge216509 edge255825 edge183861 edge72934 edge255829 edge256567 edge256574 edge62313 edge189224 edge189488 edge216503 edge218205 edge62521 edge62522 edge218193 edge188717 edge218202 edge218179 edge218208 edge141047 edge113232 edge182273 edge62013 edge93170 edge218300 edge62018 edge182274 edge218166 edge218299 edge218290 edge195001 edge179296 edge204399 edge218154 edge218289 edge217391 edge218292 edge218294 edge215576 edge218150 edge218296 edge218291 edge218298 edge62025 edge62027 edge218288 edge153313 edge132624 edge217419 edge245930 edge228490 edge215575 edge179750 edge18764 edge239337 edge162373 edge125704 edge162374 edge125705 edge62497 edge162368 edge245911 edge245912 edge245909 edge245908 edge17864 edge245907 edge218085"/>
    </vehicle>
    <vehicle id="27581#1_198" depart="0.00">
        <route edges="edge140102 edge170505 edge256438 edge256444 edge170506 edge207508 edge256446 edge118365 edge183542 edge148803 edge64711 edge256917 edge64710 edge257077 edge197031 edge197035 edge197032 edge172224 edge180864 edge136432 edge135662 edge85523 edge194130 edge187627 edge30614 edge30615 edge140554 edge140553 edge72928 edge72929 edge147663 edge203808 edge85521 edge256680 edge206354 edge206353 edge255680 edge206351 edge255679 edge255681 edge88073 edge207491 edge216043 edge256884 edge140582 edge127868 edge139301 edge140583 edge1844 edge255753 edge88076 edge60818 edge60816 edge256885 edge170815 edge170816 edge256887 edge207659 edge161169 edge241706 edge195727 edge156175 edge255746 edge91232 edge5943 edge5944 edge808"/>
    </vehicle>
    <vehicle id="22510#1_106" depart="0.00">
        <route edges="edge253731 edge103736 edge103735 edge192953 edge253718 edge103721 edge253717 edge253852 edge209630 edge253606 edge170162 edge5258 edge216100 edge198046 edge253799 edge253800 edge253801"/>
    </vehicle>
    <vehicle id="32611#3_340" depart="0.00">