<?xml version='1.0' encoding='UTF-8'?>
<additional xmlns:xsi="http://www.w3.org/2001/XMLSchema-instance" xsi:noNamespaceSchemaLocation="http://sumo.dlr.de/xsd/additional_file.xsd">
  <vType id="BUS" accel="2.6" decel="4.5" sigma="0" length="10" minGap="3" maxSpeed="70" color="1,1,0" guiShape="bus" vClass="bus"/>
  <busStop id="1800SBH1321" name="1800SBH1321" lane="edge1764_0" startPos="48.41677805285594" endPos="58.41677805285594" friendlyPos="true"/>
  <busStop id="1800SBH1261" name="1800SBH1261" lane="edge256650_0" startPos="39.4010711985036" endPos="49.4010711985036" friendlyPos="true"/>
  <busStop id="1800EB03871" name="1800EB03871" lane="edge62313_0" startPos="136.6044748186408" endPos="146.6044748186408" friendlyPos="true"/>
  <busStop id="1800EB03861" name="1800EB03861" lane="edge62313_0" startPos="150.54475870849808" endPos="160.54475870849808" friendlyPos="true"/>
  <busStop id="1800SB31521" name="1800SB31521" lane="edge256906_0" startPos="35.62740399069598" endPos="45.62740399069598" friendlyPos="true"/>
  <busStop id="1800SB14101" name="1800SB14101" lane="edge189779_0" startPos="12.002031253740636" endPos="22.002031253740636" friendlyPos="true"/>
  <busStop id="1800EB03811" name="1800EB03811" lane="edge218208_0" startPos="67.80998408804507" endPos="77.80998408804507" friendlyPos="true"/>
  <busStop id="1800EB03601" name="1800EB03601" lane="edge247170_0" startPos="0.0" endPos="10.0" friendlyPos="true"/>
  <busStop id="1800SB33441" name="1800SB33441" lane="edge216043_0" startPos="20.27107917372273" endPos="30.27107917372273" friendlyPos="true"/>
  <busStop id="1800SB33431" name="1800SB33431" lane="edge207491_0" startPos="7.657167616429772" endPos="17.657167616429774" friendlyPos="true"/>
  <busStop id="1800SB31331" name="1800SB31331" lane="edge61183_0" startPos="188.45221499075092" endPos="198.45221499075092" friendlyPos="true"/>
  <busStop id="1800SB31341" name="1800SB31341" lane="edge94008_0" startPos="175.5271271982184" endPos="185.5271271982184" friendlyPos="true"/>
  <busStop id="1800SB31041" name="1800SB31041" lane="edge107354_0" startPos="13.294462789263438" endPos="23.294462789263438" friendlyPos="true"/>
  <busStop id="1800SB32981" name="1800SB32981" lane="edge140675_0" startPos="286.52514984592943" endPos="296.52514984592943" friendlyPos="true"/>
  <busStop id="1800SB31901" name="1800SB31901" lane="edge219804_0" startPos="106.54873658740087" endPos="116.54873658740087" friendlyPos="true"/>
  <busStop id="1800SB32971" name="1800SB32971" lane="edge198988_0" startPos="43.1844714721569" endPos="53.1844714721569" friendlyPos="true"/>
  <busStop id="1800SB31051" name="1800SB31051" lane="edge253409_0" startPos="45.184429374290794" endPos="55.184429374290794" friendlyPos="true"/>
  <busStop id="1800EB03731" name="1800EB03731" lane="edge163876_0" startPos="137.29171103089803" endPos="147.29171103089803" friendlyPos="true"/>
  <busStop id="1800EB03721" name="1800EB03721" lane="edge163876_0" startPos="129.87225495482306" endPos="139.87225495482306" friendlyPos="true"/>
  <busStop id="1800SB14091" name="1800SB14091" lane="edge189779_0" startPos="44.579297998125114" endPos="54.579297998125114" friendlyPos="true"/>
  <busStop id="1800SB33151" name="1800SB33151" lane="edge161437_0" startPos="59.12667695234056" endPos="69.12667695234056" friendlyPos="true"/>
  <busStop id="1800SB33161" name="1800SB33161" lane="edge94039_0" startPos="75.67572880643407" endPos="85.67572880643407" friendlyPos="true"/>
  <busStop id="1800SB02541" name="1800SB02541" lane="edge140603_0" startPos="59.26987499584138" endPos="69.26987499584138" friendlyPos="true"/>
  <busStop id="1800EB01281" name="1800EB01281" lane="edge173582_0" startPos="156.9822159752641" endPos="166.9822159752641" friendlyPos="true"/>
  <busStop id="1800EB01241" name="1800EB01241" lane="edge173582_0" startPos="131.95075729692536" endPos="141.95075729692536" friendlyPos="true"/>
  <busStop id="1800SB08661" name="1800SB08661" lane="edge90830_0" startPos="13.887582757827367" endPos="23.887582757827367" friendlyPos="true"/>
  <busStop id="1800EB03761" name="1800EB03761" lane="edge218199_0" startPos="25.41010972727479" endPos="35.41010972727479" friendlyPos="true"/>
  <busStop id="1800EB04151" name="1800EB04151" lane="edge256569_0" startPos="228.91148778738398" endPos="238.91148778738398" friendlyPos="true"/>
  <busStop id="1800EB04141" name="1800EB04141" lane="edge256569_0" startPos="138.2340415190282" endPos="148.2340415190282" friendlyPos="true"/>
  <busStop id="1800SJ30191" name="1800SJ30191" lane="edge195575_0" startPos="1.8918856654438931" endPos="11.891885665443894" friendlyPos="true"/>
  <busStop id="1800SJ30201" name="1800SJ30201" lane="edge54299_0" startPos="53.644205109387755" endPos="63.644205109387755" friendlyPos="true"/>
  <busStop id="1800EB04231" name="1800EB04231" lane="edge217220_0" startPos="19.548230221668774" endPos="29.548230221668774" friendlyPos="true"/>
  <busStop id="1800EB04221" name="1800EB04221" lane="edge217220_0" startPos="62.56074464265852" endPos="72.56074464265852" friendlyPos="true"/>
  <busStop id="1800EB13801" name="1800EB13801" lane="edge143910_0" startPos="290.2858346427635" endPos="300.2858346427635" friendlyPos="true"/>
  <busStop id="1800EB13811" name="1800EB13811" lane="edge256477_0" startPos="129.23370578464036" endPos="139.23370578464036" friendlyPos="true"/>
  <busStop id="1800SB16571" name="1800SB16571" lane="edge256517_0" startPos="46.47001801544828" endPos="56.47001801544828" friendlyPos="true"/>
  <busStop id="1800SB33421" name="1800SB33421" lane="edge255679_0" startPos="247.53028342837715" endPos="257.5302834283772" friendlyPos="true"/>
  <busStop id="1800SB33411" name="1800SB33411" lane="edge3217_0" startPos="39.60949321767454" endPos="49.60949321767454" friendlyPos="true"/>
  <busStop id="1800SB16561" name="1800SB16561" lane="edge256517_0" startPos="15.54754620139331" endPos="25.54754620139331" friendlyPos="true"/>
  <busStop id="1800SBH0351" name="1800SBH0351" lane="edge143977_0" startPos="58.015477694678864" endPos="68.01547769467886" friendlyPos="true"/>
  <busStop id="1800SB15431" name="1800SB15431" lane="edge144715_0" startPos="25.590791768531602" endPos="35.5907917685316" friendlyPos="true"/>
  <busStop id="1800SB33811" name="1800SB33811" lane="edge241705_0" startPos="54.57931139643169" endPos="64.57931139643169" friendlyPos="true"/>
  <busStop id="1800SB32831" name="1800SB32831" lane="edge30615_0" startPos="137.19402401527148" endPos="147.19402401527148" friendlyPos="true"/>
  <busStop id="1800SB32871" name="1800SB32871" lane="edge200034_0" startPos="1.2823592261576344" endPos="11.282359226157634" friendlyPos="true"/>
  <busStop id="1800SB33381" name="1800SB33381" lane="edge147663_0" startPos="32.05220489245741" endPos="42.05220489245741" friendlyPos="true"/>
  <busStop id="1800SB32881" name="1800SB32881" lane="edge256447_0" startPos="154.8026322998448" endPos="164.8026322998448" friendlyPos="true"/>
  <busStop id="1800ZZMABAR1" name="1800ZZMABAR1" lane="edge256447_0" startPos="105.15747298530475" endPos="115.15747298530475" friendlyPos="true"/>
  <busStop id="1800ZZMABAR2" name="1800ZZMABAR2" lane="edge203684_0" startPos="14.259181504678516" endPos="24.259181504678516" friendlyPos="true"/>
  <busStop id="1800ZZMABAR3" name="1800ZZMABAR3" lane="edge198664_0" startPos="16.495216957537018" endPos="26.495216957537018" friendlyPos="true"/>
  <busStop id="1800ZZMABAR4" name="1800ZZMABAR4" lane="edge2046_0" startPos="15.3393019816593" endPos="25.3393019816593" friendlyPos="true"/>
  <busStop id="1800SB34091" name="1800SB34091" lane="edge103721_0" startPos="19.77680711878036" endPos="29.77680711878036" friendlyPos="true"/>
  <busStop id="1800SB34101" name="1800SB34101" lane="edge103721_0" startPos="0.0" endPos="10.0" friendlyPos="true"/>
  <busStop id="1800EB34381" name="1800EB34381" lane="edge205958_0" startPos="15.905781096093634" endPos="25.905781096093634" friendlyPos="true"/>
  <busStop id="1800EB02061" name="1800EB02061" lane="edge194970_0" startPos="19.329041475734144" endPos="29.329041475734144" friendlyPos="true"/>
  <busStop id="1800EB02071" name="1800EB02071" lane="edge253674_0" startPos="29.050806970798554" endPos="39.050806970798554" friendlyPos="true"/>
  <busStop id="1800EB01641" name="1800EB01641" lane="edge218734_0" startPos="95.30567311742826" endPos="105.30567311742826" friendlyPos="true"/>
  <busStop id="1800EB04371" name="1800EB04371" lane="edge186420_0" startPos="3.2451667292226816" endPos="13.245166729222682" friendlyPos="true"/>
  <busStop id="1800EB04361" name="1800EB04361" lane="edge250422_0" startPos="62.66225107047802" endPos="72.66225107047802" friendlyPos="true"/>
  <busStop id="1800EB34351" name="1800EB34351" lane="edge217409_0" startPos="24.38016094049093" endPos="34.38016094049093" friendlyPos="true"/>
  <busStop id="1800EB01951" name="1800EB01951" lane="edge218123_0" startPos="102.66409817916643" endPos="112.66409817916643" friendlyPos="true"/>
  <busStop id="1800EB04391" name="1800EB04391" lane="edge186419_0" startPos="92.19454508354437" endPos="102.19454508354437" friendlyPos="true"/>
  <busStop id="1800EB01651" name="1800EB01651" lane="edge62350_0" startPos="19.28218076875894" endPos="29.28218076875894" friendlyPos="true"/>
  <busStop id="1800EB05931" name="1800EB05931" lane="edge206045_0" startPos="15.887504109275874" endPos="25.887504109275874" friendlyPos="true"/>
  <busStop id="1800SB33281" name="1800SB33281" lane="edge255647_0" startPos="81.21070933317502" endPos="91.21070933317502" friendlyPos="true"/>
  <busStop id="1800SB33291" name="1800SB33291" lane="edge255647_0" startPos="39.73734747722738" endPos="49.73734747722738" friendlyPos="true"/>
  <busStop id="1800SB09551" name="1800SB09551" lane="edge198279_0" startPos="29.07356401139276" endPos="39.07356401139276" friendlyPos="true"/>
  <busStop id="1800SB09571" name="1800SB09571" lane="edge197943_0" startPos="36.2554385548124" endPos="46.2554385548124" friendlyPos="true"/>
  <busStop id="1800EB34361" name="1800EB34361" lane="edge217382_0" startPos="59.508946412274454" endPos="69.50894641227445" friendlyPos="true"/>
  <busStop id="1800SJ32081" name="1800SJ32081" lane="edge94203_0" startPos="47.98617974235477" endPos="57.98617974235477" friendlyPos="true"/>
  <busStop id="1800SJH1911" name="1800SJH1911" lane="edge209485_0" startPos="6.763247525312062" endPos="16.76324752531206" friendlyPos="true"/>
  <busStop id="1800SJ32071" name="1800SJ32071" lane="edge94203_0" startPos="66.86930695864626" endPos="76.86930695864626" friendlyPos="true"/>
  <busStop id="1800SB31971" name="1800SB31971" lane="edge257526_0" startPos="66.63783743229133" endPos="76.63783743229133" friendlyPos="true"/>
  <busStop id="1800SB08831" name="1800SB08831" lane="edge247157_0" startPos="38.72607744452443" endPos="48.72607744452443" friendlyPos="true"/>
  <busStop id="1800EB13861" name="1800EB13861" lane="edge255797_0" startPos="79.90320824862798" endPos="89.90320824862798" friendlyPos="true"/>
  <busStop id="1800EB13851" name="1800EB13851" lane="edge255768_0" startPos="158.02254355316063" endPos="168.02254355316063" friendlyPos="true"/>
  <busStop id="1800SB31451" name="1800SB31451" lane="edge173743_0" startPos="120.46093932691278" endPos="130.46093932691278" friendlyPos="true"/>
  <busStop id="1800SB12161" name="1800SB12161" lane="edge257472_0" startPos="26.162545831007126" endPos="36.16254583100712" friendlyPos="true"/>
  <busStop id="1800SB12151" name="1800SB12151" lane="edge186297_0" startPos="7.237622808956157" endPos="17.237622808956157" friendlyPos="true"/>
  <busStop id="1800SB30011" name="1800SB30011" lane="edge169461_0" startPos="50.353391516335925" endPos="60.353391516335925" friendlyPos="true"/>
  <busStop id="1800SJ30021" name="1800SJ30021" lane="edge252184_0" startPos="12.232252935564116" endPos="22.232252935564116" friendlyPos="true"/>
  <busStop id="1800EB03641" name="1800EB03641" lane="edge217730_0" startPos="0.0" endPos="10.0" friendlyPos="true"/>
  <busStop id="1800EB03651" name="1800EB03651" lane="edge216514_0" startPos="0.7126690707642593" endPos="10.71266907076426" friendlyPos="true"/>
  <busStop id="1800SBT0131" name="1800SBT0131" lane="edge1906_0" startPos="28.403680530267657" endPos="38.40368053026766" friendlyPos="true"/>
  <busStop id="1800SB32611" name="1800SB32611" lane="edge198971_0" startPos="12.8449000926027" endPos="22.8449000926027" friendlyPos="true"/>
  <busStop id="1800SB32621" name="1800SB32621" lane="edge162699_0" startPos="9.317824000945581" endPos="19.31782400094558" friendlyPos="true"/>
  <busStop id="1800SB32481" name="1800SB32481" lane="edge208085_0" startPos="30.162830804782594" endPos="40.162830804782594" friendlyPos="true"/>
  <busStop id="1800SB32491" name="1800SB32491" lane="edge208085_0" startPos="17.66999651594178" endPos="27.66999651594178" friendlyPos="true"/>
  <busStop id="1800SB31091" name="1800SB31091" lane="edge256172_0" startPos="14.610377821138457" endPos="24.610377821138457" friendlyPos="true"/>
  <busStop id="1800SBH1501" name="1800SBH1501" lane="edge325_0" startPos="26.63876517382622" endPos="36.638765173826215" friendlyPos="true"/>
  <busStop id="1800EB03951" name="1800EB03951" lane="edge255811_0" startPos="34.6256769619476" endPos="44.6256769619476" friendlyPos="true"/>
  <busStop id="1800EB03961" name="1800EB03961" lane="edge255811_0" startPos="16.389361705259564" endPos="26.389361705259564" friendlyPos="true"/>
  <busStop id="1800EB04591" name="1800EB04591" lane="edge195524_0" startPos="14.747969177809228" endPos="24.747969177809228" friendlyPos="true"/>
  <busStop id="1800EB04251" name="1800EB04251" lane="edge170124_0" startPos="3.4949049092923232" endPos="13.494904909292323" friendlyPos="true"/>
  <busStop id="1800EB04601" name="1800EB04601" lane="edge195524_0" startPos="6.678984183230018" endPos="16.678984183230018" friendlyPos="true"/>
  <busStop id="1800BAGE0" name="1800BAGE0" lane="edge189533_0" startPos="30.76781437762314" endPos="40.76781437762314" friendlyPos="true"/>
  <busStop id="1800BAGE1" name="1800BAGE1" lane="edge108943_0" startPos="6.480246816390704" endPos="16.480246816390704" friendlyPos="true"/>
  <busStop id="1800SB14021" name="1800SB14021" lane="edge189531_0" startPos="4.173868357346537" endPos="14.173868357346537" friendlyPos="true"/>
  <busStop id="1800SB33821" name="1800SB33821" lane="edge2044_0" startPos="35.505453204492575" endPos="45.505453204492575" friendlyPos="true"/>
  <busStop id="1800ZZMABNR2" name="1800ZZMABNR2" lane="edge50980_0" startPos="3.2573821403080494" endPos="13.25738214030805" friendlyPos="true"/>
  <busStop id="1800ZZMABNR1" name="1800ZZMABNR1" lane="edge50980_0" startPos="18.196795857416504" endPos="28.196795857416504" friendlyPos="true"/>
  <busStop id="1800SBH0851" name="1800SBH0851" lane="edge255731_0" startPos="24.94560612301487" endPos="34.94560612301487" friendlyPos="true"/>
  <busStop id="1800EBH0611" name="1800EBH0611" lane="edge215583_0" startPos="1.7790450397362862" endPos="11.779045039736285" friendlyPos="true"/>
  <busStop id="1800EB27611" name="1800EB27611" lane="edge88694_0" startPos="9.353900972094495" endPos="19.353900972094493" friendlyPos="true"/>
  <busStop id="1800EB27621" name="1800EB27621" lane="edge203889_0" startPos="23.243943110775657" endPos="33.24394311077566" friendlyPos="true"/>
  <busStop id="1800SB14651" name="1800SB14651" lane="edge245966_0" startPos="73.90571334250691" endPos="83.90571334250691" friendlyPos="true"/>
  <busStop id="1800EB04201" name="1800EB04201" lane="edge255778_0" startPos="30.108496191363727" endPos="40.10849619136373" friendlyPos="true"/>
  <busStop id="1800EB04211" name="1800EB04211" lane="edge255778_0" startPos="0.0" endPos="10.0" friendlyPos="true"/>
  <busStop id="1800EB02991" name="1800EB02991" lane="edge15323_0" startPos="3.316524363300328" endPos="13.316524363300328" friendlyPos="true"/>
  <busStop id="1800EB03591" name="1800EB03591" lane="edge217367_0" startPos="40.12789904018019" endPos="50.12789904018019" friendlyPos="true"/>
  <busStop id="1800SB09931" name="1800SB09931" lane="edge253707_0" startPos="42.93360109052572" endPos="52.93360109052572" friendlyPos="true"/>
  <busStop id="1800SB16311" name="1800SB16311" lane="edge117362_0" startPos="46.773925381836044" endPos="56.773925381836044" friendlyPos="true"/>
  <busStop id="1800EB07711" name="1800EB07711" lane="edge173190_0" startPos="15.438534166447315" endPos="25.438534166447315" friendlyPos="true"/>
  <busStop id="1800SB32761" name="1800SB32761" lane="edge148883_0" startPos="23.97432421819766" endPos="33.97432421819766" friendlyPos="true"/>
  <busStop id="1800SB32791" name="1800SB32791" lane="edge256917_0" startPos="0.0" endPos="10.0" friendlyPos="true"/>
  <busStop id="1800SBE0621" name="1800SBE0621" lane="edge957_0" startPos="15.647529099827445" endPos="25.647529099827445" friendlyPos="true"/>
  <busStop id="1800CNBS001" name="1800CNBS001" lane="edge148883_0" startPos="4.514139586816121" endPos="14.514139586816121" friendlyPos="true"/>
  <busStop id="1800SB32771" name="1800SB32771" lane="edge148883_0" startPos="11.895626871371256" endPos="21.895626871371256" friendlyPos="true"/>
  <busStop id="1800SB32801" name="1800SB32801" lane="edge256917_0" startPos="14.912043117162526" endPos="24.912043117162526" friendlyPos="true"/>
  <busStop id="1800SB32751" name="1800SB32751" lane="edge170510_0" startPos="80.06280113150827" endPos="90.06280113150827" friendlyPos="true"/>
  <busStop id="1800SBE0641" name="1800SBE0641" lane="edge148802_0" startPos="0.0" endPos="10.0" friendlyPos="true"/>
  <busStop id="1800SB32781" name="1800SB32781" lane="edge64709_0" startPos="34.9893754062243" endPos="44.9893754062243" friendlyPos="true"/>
  <busStop id="1800SB32641" name="1800SB32641" lane="edge256665_0" startPos="30.245600629980864" endPos="40.24560062998086" friendlyPos="true"/>
  <busStop id="1800SB32461" name="1800SB32461" lane="edge208087_0" startPos="4.526669306672305" endPos="14.526669306672305" friendlyPos="true"/>
  <busStop id="1800SB32471" name="1800SB32471" lane="edge2694_0" startPos="53.324256791762984" endPos="63.324256791762984" friendlyPos="true"/>
  <busStop id="1800SB14271" name="1800SB14271" lane="edge15342_0" startPos="26.62745873275985" endPos="36.62745873275985" friendlyPos="true"/>
  <busStop id="1800SB30601" name="1800SB30601" lane="edge140894_0" startPos="27.062428861841717" endPos="37.06242886184172" friendlyPos="true"/>
  <busStop id="1800ZZMACHO2" name="1800ZZMACHO2" lane="edge2555_0" startPos="0.0" endPos="10.0" friendlyPos="true"/>
  <busStop id="1800ZZMACHO3" name="1800ZZMACHO3" lane="edge2555_0" startPos="21.25439464961785" endPos="31.25439464961785" friendlyPos="true"/>
  <busStop id="1800SB34381" name="1800SB34381" lane="edge256717_0" startPos="22.514953471803224" endPos="32.514953471803224" friendlyPos="true"/>
  <busStop id="1800SBH0061" name="1800SBH0061" lane="edge256716_0" startPos="99.41765077709987" endPos="109.41765077709987" friendlyPos="true"/>
  <busStop id="1800EB03701" name="1800EB03701" lane="edge218170_0" startPos="12.907106386963399" endPos="22.9071063869634" friendlyPos="true"/>
  <busStop id="1800SB11961" name="1800SB11961" lane="edge1153_0" startPos="98.41606604010721" endPos="108.41606604010721" friendlyPos="true"/>
  <busStop id="1800SB12361" name="1800SB12361" lane="edge1221_0" startPos="22.803243066480928" endPos="32.80324306648093" friendlyPos="true"/>
  <busStop id="1800SB31361" name="1800SB31361" lane="edge256021_0" startPos="49.78107832718916" endPos="59.78107832718916" friendlyPos="true"/>
  <busStop id="1800SB31851" name="1800SB31851" lane="edge140870_0" startPos="23.97476445072246" endPos="33.97476445072246" friendlyPos="true"/>
  <busStop id="1800SB31651" name="1800SB31651" lane="edge256007_0" startPos="10.145980045721018" endPos="20.145980045721018" friendlyPos="true"/>
  <busStop id="1800SB31661" name="1800SB31661" lane="edge204291_0" startPos="4.856062764521969" endPos="14.856062764521969" friendlyPos="true"/>
  <busStop id="1800SB31911" name="1800SB31911" lane="edge203010_0" startPos="240.52668816297054" endPos="250.52668816297054" friendlyPos="true"/>
  <busStop id="1800SB11971" name="1800SB11971" lane="edge1153_0" startPos="60.58283404705665" endPos="70.58283404705665" friendlyPos="true"/>
  <busStop id="1800SB12371" name="1800SB12371" lane="edge1221_0" startPos="13.614685006717185" endPos="23.614685006717185" friendlyPos="true"/>
  <busStop id="1800SB31351" name="1800SB31351" lane="edge255455_0" startPos="25.607034581938905" endPos="35.607034581938905" friendlyPos="true"/>
  <busStop id="1800EB04421" name="1800EB04421" lane="edge246569_0" startPos="67.92983040735655" endPos="77.92983040735655" friendlyPos="true"/>
  <busStop id="1800EB01821" name="1800EB01821" lane="edge246578_0" startPos="12.916078608094082" endPos="22.916078608094082" friendlyPos="true"/>
  <busStop id="1800EB04431" name="1800EB04431" lane="edge180995_0" startPos="7.7185772527597525" endPos="17.71857725275975" friendlyPos="true"/>
  <busStop id="1800EB01831" name="1800EB01831" lane="edge246578_0" startPos="0.0" endPos="10.0" friendlyPos="true"/>
  <busStop id="1800EBH0761" name="1800EBH0761" lane="edge217422_0" startPos="26.18672791539567" endPos="36.18672791539567" friendlyPos="true"/>
  <busStop id="1800EB04321" name="1800EB04321" lane="edge256460_0" startPos="50.28482111999634" endPos="60.28482111999634" friendlyPos="true"/>
  <busStop id="1800EB04311" name="1800EB04311" lane="edge253723_0" startPos="31.31041079099606" endPos="41.31041079099606" friendlyPos="true"/>
  <busStop id="1800SG40471" name="1800SG40471" lane="edge239888_0" startPos="2.814496040551294" endPos="12.814496040551294" friendlyPos="true"/>
  <busStop id="1800SG40651" name="1800SG40651" lane="edge249983_0" startPos="54.073388724270536" endPos="64.07338872427053" friendlyPos="true"/>
  <busStop id="1800SB33701" name="1800SB33701" lane="edge197891_0" startPos="34.305861590150826" endPos="44.305861590150826" friendlyPos="true"/>
  <busStop id="1800SB33841" name="1800SB33841" lane="edge161171_0" startPos="36.4939406338631" endPos="46.4939406338631" friendlyPos="true"/>
  <busStop id="1800SB33851" name="1800SB33851" lane="edge161171_0" startPos="33.54192963026479" endPos="43.54192963026479" friendlyPos="true"/>
  <busStop id="1800SB30111" name="1800SB30111" lane="edge196304_0" startPos="17.319923419100043" endPos="27.319923419100043" friendlyPos="true"/>
  <busStop id="1800SJ30121" name="1800SJ30121" lane="edge196304_0" startPos="32.39290238932721" endPos="42.39290238932721" friendlyPos="true"/>
  <busStop id="1800EB06091" name="1800EB06091" lane="edge218299_0" startPos="22.7203589316623" endPos="32.720358931662304" friendlyPos="true"/>
  <busStop id="1800SB15121" name="1800SB15121" lane="edge185576_0" startPos="1.22928026332628" endPos="11.229280263326281" friendlyPos="true"/>
  <busStop id="1800SB34451" name="1800SB34451" lane="edge255644_0" startPos="4.0593592038429716" endPos="14.059359203842972" friendlyPos="true"/>
  <busStop id="1800SB34461" name="1800SB34461" lane="edge255644_0" startPos="54.301303684841386" endPos="64.30130368484139" friendlyPos="true"/>
  <busStop id="1800SJ30401" name="1800SJ30401" lane="edge222742_0" startPos="30.040823622718705" endPos="40.040823622718705" friendlyPos="true"/>
  <busStop id="1800SJ30411" name="1800SJ30411" lane="edge198977_0" startPos="44.973755817952316" endPos="54.973755817952316" friendlyPos="true"/>
  <busStop id="1800SJ00321" name="1800SJ00321" lane="edge198828_0" startPos="0.0" endPos="10.0" friendlyPos="true"/>
  <busStop id="1800SJ30511" name="1800SJ30511" lane="edge199287_0" startPos="44.6285139313269" endPos="54.6285139313269" friendlyPos="true"/>
  <busStop id="1800EB03631" name="1800EB03631" lane="edge62063_0" startPos="22.82514847462545" endPos="32.82514847462545" friendlyPos="true"/>
  <busStop id="1800EB03621" name="1800EB03621" lane="edge204364_0" startPos="36.73641047092519" endPos="46.73641047092519" friendlyPos="true"/>
  <busStop id="1800SB33391" name="1800SB33391" lane="edge255680_0" startPos="0.940324627490857" endPos="10.940324627490856" friendlyPos="true"/>
  <busStop id="1800SB33401" name="1800SB33401" lane="edge3216_0" startPos="47.43499125903612" endPos="57.43499125903612" friendlyPos="true"/>
  <busStop id="1800EB03841" name="1800EB03841" lane="edge216503_0" startPos="9.751984579725752" endPos="19.75198457972575" friendlyPos="true"/>
  <busStop id="1800EB03681" name="1800EB03681" lane="edge195938_0" startPos="28.531522062436586" endPos="38.531522062436586" friendlyPos="true"/>
  <busStop id="1800EB03691" name="1800EB03691" lane="edge195938_0" startPos="20.44706981038615" endPos="30.44706981038615" friendlyPos="true"/>
  <busStop id="1800EB18001" name="1800EB18001" lane="edge255954_0" startPos="59.10630549676986" endPos="69.10630549676986" friendlyPos="true"/>
  <busStop id="1800EB04131" name="1800EB04131" lane="edge195938_0" startPos="264.7334770352947" endPos="274.7334770352947" friendlyPos="true"/>
  <busStop id="1800EB03671" name="1800EB03671" lane="edge195938_0" startPos="156.3604780081303" endPos="166.3604780081303" friendlyPos="true"/>
  <busStop id="1800EB03891" name="1800EB03891" lane="edge256574_0" startPos="16.076429207827278" endPos="26.076429207827278" friendlyPos="true"/>
  <busStop id="1800EB03881" name="1800EB03881" lane="edge256574_0" startPos="68.76997515946788" endPos="78.76997515946788" friendlyPos="true"/>
  <busStop id="1800EB06111" name="1800EB06111" lane="edge218150_0" startPos="37.28248306525859" endPos="47.28248306525859" friendlyPos="true"/>
  <busStop id="1800EB06341" name="1800EB06341" lane="edge218294_0" startPos="0.0" endPos="10.0" friendlyPos="true"/>
  <busStop id="1800EB08011" name="1800EB08011" lane="edge253611_0" startPos="52.3908147107723" endPos="62.3908147107723" friendlyPos="true"/>
  <busStop id="1800SG12591" name="1800SG12591" lane="edge253611_0" startPos="74.91707563735903" endPos="84.91707563735903" friendlyPos="true"/>
  <busStop id="1800SB32811" name="1800SB32811" lane="edge187627_0" startPos="15.758691013143498" endPos="25.758691013143498" friendlyPos="true"/>
  <busStop id="1800SB32821" name="1800SB32821" lane="edge187627_0" startPos="53.86733068884188" endPos="63.86733068884188" friendlyPos="true"/>
  <busStop id="1800EB01671" name="1800EB01671" lane="edge131275_0" startPos="16.47899096169938" endPos="26.47899096169938" friendlyPos="true"/>
  <busStop id="1800EB01801" name="1800EB01801" lane="edge246581_0" startPos="79.66753415433607" endPos="89.66753415433607" friendlyPos="true"/>
  <busStop id="1800EB00031" name="1800EB00031" lane="edge140779_0" startPos="69.48857346117748" endPos="79.48857346117748" friendlyPos="true"/>
  <busStop id="1800EB01841" name="1800EB01841" lane="edge246581_0" startPos="105.45538630980548" endPos="115.45538630980548" friendlyPos="true"/>
  <busStop id="1800SB32861" name="1800SB32861" lane="edge148809_0" startPos="21.55289808071291" endPos="31.55289808071291" friendlyPos="true"/>
  <busStop id="1800SB33691" name="1800SB33691" lane="edge50979_0" startPos="19.557329626878087" endPos="29.557329626878087" friendlyPos="true"/>
  <busStop id="1800SB33661" name="1800SB33661" lane="edge256583_0" startPos="30.19441887576486" endPos="40.19441887576486" friendlyPos="true"/>
  <busStop id="1800EB03011" name="1800EB03011" lane="edge204249_0" startPos="20.059080044869855" endPos="30.059080044869855" friendlyPos="true"/>
  <busStop id="1800SB31961" name="1800SB31961" lane="edge206332_0" startPos="89.46589410544942" endPos="99.46589410544942" friendlyPos="true"/>
  <busStop id="1800SB31951" name="1800SB31951" lane="edge81157_0" startPos="2.486306242905549" endPos="12.486306242905549" friendlyPos="true"/>
  <busStop id="1800EB01931" name="1800EB01931" lane="edge27_0" startPos="115.24398119152323" endPos="125.24398119152323" friendlyPos="true"/>
  <busStop id="1800EB01661" name="1800EB01661" lane="edge27_0" startPos="301.82548501446456" endPos="311.82548501446456" friendlyPos="true"/>
  <busStop id="1800EB04401" name="1800EB04401" lane="edge170239_0" startPos="63.184703906921655" endPos="73.18470390692165" friendlyPos="true"/>
  <busStop id="1800SBT0201" name="1800SBT0201" lane="edge80572_0" startPos="42.43382573107981" endPos="52.43382573107981" friendlyPos="true"/>
  <busStop id="1800SBT0621" name="1800SBT0621" lane="edge253606_0" startPos="43.70174875308048" endPos="53.70174875308048" friendlyPos="true"/>
  <busStop id="1800SB14871" name="1800SB14871" lane="edge5654_0" startPos="4.107333123355341" endPos="14.10733312335534" friendlyPos="true"/>
  <busStop id="1800SB12381" name="1800SB12381" lane="edge253606_0" startPos="50.968490771338935" endPos="60.968490771338935" friendlyPos="true"/>
  <busStop id="1800SB34141" name="1800SB34141" lane="edge216100_0" startPos="19.117213003259494" endPos="29.117213003259494" friendlyPos="true"/>
  <busStop id="1800ZZMADID2" name="1800ZZMADID2" lane="edge253727_0" startPos="0.0" endPos="10.0" friendlyPos="true"/>
  <busStop id="1800ZZMADID1" name="1800ZZMADID1" lane="edge5653_0" startPos="73.27619992891302" endPos="83.27619992891302" friendlyPos="true"/>
  <busStop id="1800SB33301" name="1800SB33301" lane="edge255646_0" startPos="95.41628999583371" endPos="105.41628999583371" friendlyPos="true"/>
  <busStop id="1800SB33311" name="1800SB33311" lane="edge256634_0" startPos="9.56605720877187" endPos="19.56605720877187" friendlyPos="true"/>
  <busStop id="1800SBH0241" name="1800SBH0241" lane="edge144726_0" startPos="64.8911927098677" endPos="74.8911927098677" friendlyPos="true"/>
  <busStop id="1800SBH0591" name="1800SBH0591" lane="edge256623_0" startPos="68.95987718711805" endPos="78.95987718711805" friendlyPos="true"/>
  <busStop id="1800EB04491" name="1800EB04491" lane="edge217419_0" startPos="60.10018454803951" endPos="70.10018454803951" friendlyPos="true"/>
  <busStop id="1800EB04501" name="1800EB04501" lane="edge245930_0" startPos="44.26937835696441" endPos="54.26937835696441" friendlyPos="true"/>