<?xml version='1.0' encoding='UTF-8'?>
<routes xmlns:xsi="http://www.w3.org/2001/XMLSchema-instance" xsi:noNamespaceSchemaLocation="http://sumo.dlr.de/xsd/routes_file.xsd">
  <trip id="29767#4_253" depart="0.00" from="edge2807" to="edge61989"/>
  <trip id="27130#3_184" depart="0.00" from="edge254348" to="edge256499"/>
  <trip id="37128#2_451" depart="0.00" from="edge73623" to="edge233"/>
  <trip id="29577#0_237" depart="0.00" from="edge51093" to="edge253801"/>
  <trip id="20936#10_75" depart="0.00" from="edge198880" to="edge1734"/>
  <trip id="27754#0_206" depart="0.00" from="edge207816" to="edge808"/>
  <trip id="71162#2_543" depart="0.00" from="edge211943" to="edge103"/>
  <trip id="33325#2_367" depart="0.00" from="edge64749" to="edge68874"/>
  <trip id="39018#4_509" depart="0.00" from="edge93632" to="edge61989"/>
  <trip id="38662#0_497" depart="0.00" from="edge257460" to="edge218085"/>
  <trip id="100488#1_683" depart="0.00" from="edge205969" to="edge68874"/>
  <trip id="21098#3_77" depart="0.00" from="edge240935" to="edge240790"/>
  <trip id="73842#29_574" depart="0.00" from="edge240935" to="edge240777"/>
  <trip id="83712#2_649" depart="0.00" from="edge239284" to="edge61989"/>
  <trip id="88093#6_672" depart="0.00" from="edge140829" to="edge217002"/>
  <trip id="27627#12_200" depart="0.00" from="edge3104" to="edge256499"/>
  <trip id="31863#2_309" depart="0.00" from="edge224421" to="edge16625"/>
  <trip id="33891#4_376" depart="0.00" from="edge198936" to="edge218149"/>
  <trip id="34323#4_399" depart="0.00" from="edge198936" to="edge62411"/>
  <trip id="83699#6_645" depart="0.00" from="edge4949" to="edge222557"/>
  <trip id="76704#1_592" depart="0.00" from="edge93632" to="edge176346"/>
  <trip id="34323#4_397" depart="0.00" from="edge64749" to="edge68874"/>
  <trip id="19456#14_35" depart="0.00" from="edge140826" to="edge89484"/>
  <trip id="18832#0_6" depart="0.00" from="edge205969" to="edge68874"/>
  <trip id="75562#10_584" depart="0.00" from="edge240935" to="edge218085"/>
  <trip id="32348#3_326" depart="0.00" from="edge108827" to="edge89484"/>
  <trip id="25134#2_135" depart="0.00" from="edge256479" to="edge181395"/>
  <trip id="22001#10_88" depart="0.00" from="edge216046" to="edge3157"/>
  <trip id="78317#5_608" depart="0.00" from="edge208109" to="edge64156"/>
  <trip id="21966#2_85" depart="0.00" from="edge208678" to="edge47494"/>
  <trip id="29225#1_220" depart="0.00" from="edge93632" to="edge256506"/>
  <trip id="37598#0_465" depart="0.00" from="edge60756" to="edge253801"/>
  <trip id="29741#1_252" depart="0.00" from="edge60756" to="edge808"/>
  <trip id="38650#9_496" depart="0.00" from="edge64749" to="edge68874"/>
  <trip id="85436#11_660" depart="0.00" from="edge252147" to="edge222557"/>
  <trip id="31966#33_312" depart="0.00" from="edge208678" to="edge47494"/>
  <trip id="78190#8_606" depart="0.00" from="edge140829" to="edge48019"/>
  <trip id="36610#13_434" depart="0.00" from="edge93632" to="edge1649"/>
  <trip id="25811#0_170" depart="0.00" from="edge60756" to="edge233"/>
  <trip id="87910#10_671" depart="0.00" from="edge93632" to="edge61989"/>
  <trip id="38472#0_488" depart="0.00" from="edge1725" to="edge61989"/>
  <trip id="19349#11_22" depart="0.00" from="edge60756" to="edge185583"/>
  <trip id="32586#2_338" depart="0.00" from="edge208678" to="edge47494"/>
  <trip id="19384#9_27" depart="0.00" from="edge140829" to="edge204197"/>
  <trip id="36816#18_446" depart="0.00" from="edge96005" to="edge751"/>
  <trip id="36462#4_429" depart="0.00" from="edge93632" to="edge1814"/>
  <trip id="67664#4_536" depart="0.00" from="edge93632" to="edge61989"/>
  <trip id="31284#5_300" depart="0.00" from="edge60756" to="edge233"/>
  <trip id="73932#1_577" depart="0.00" from="edge240935" to="edge240777"/>
  <trip id="26941#0_178" depart="0.00" from="edge1906" to="edge253801"/>
  <trip id="27138#12_186" depart="0.00" from="edge90512" to="edge209485"/>
  <trip id="20483#3_70" depart="0.00" from="edge60756" to="edge182187"/>
  <trip id="36650#20_437" depart="0.00" from="edge255645" to="edge245446"/>
  <trip id="28713#0_213" depart="0.00" from="edge168625" to="edge218184"/>
  <trip id="75559#23_582" depart="0.00" from="edge240935" to="edge218085"/>
  <trip id="27581#1_198" depart="0.00" from="edge140102" to="edge808"/>
  <trip id="22510#1_106" depart="0.00" from="edge253731" to="edge253801"/>
  <trip id="32611#3_340" depart="0.00" from="edge139869" to="edge61989"/>
  <trip id="33819#9_369" depart="0.00" from="edge16622" to="edge217002"/>
  <trip id="38453#0_486" depart="0.00" from="edge2021" to="edge255854"/>
  <trip id="570#5_0" depart="0.00" from="edge88606" to="edge156803"/>
  <trip id="29233#0_224" depart="0.00" from="edge93632" to="edge1867"/>
  <trip id="29657#2_244" depart="0.00" from="edge194990" to="edge143977"/>
  <trip id="27655#1_202" depart="0.00" from="edge3104" to="edge61989"/>
  <trip id="38628#3_493" depart="0.00" from="edge93632" to="edge122085"/>
  <trip id="36462#4_428" depart="0.00" from="edge140867" to="edge253682"/>
  <trip id="36615#7_435" depart="0.00" from="edge144729" to="edge257556"/>
  <trip id="32904#3_351" depart="0.00" from="edge94416" to="edge61989"/>
  <trip id="55768#1_518" depart="0.00" from="edge208678" to="edge47494"/>
  <trip id="32019#11_314" depart="0.00" from="edge2625" to="edge61989"/>
  <trip id="85193#2_655" depart="0.00" from="edge198880" to="edge61989"/>
  <trip id="30566#10_270" depart="0.00" from="edge81999" to="edge218085"/>
  <trip id="34447#3_401" depart="0.00" from="edge256015" to="edge61989"/>
  <trip id="34299#0_391" depart="0.00" from="edge62401" to="edge218085"/>
  <trip id="87852#1_670" depart="0.00" from="edge93632" to="edge61989"/>
  <trip id="71728#4_557" depart="0.00" from="edge198936" to="edge17070"/>
  <trip id="34295#0_389" depart="0.00" from="edge60756" to="edge253801"/>
  <trip id="34134#2_384" depart="0.00" from="edge64749" to="edge68874"/>
  <trip id="27487#3_197" depart="0.00" from="edge186007" to="edge61989"/>
  <trip id="30996#2_287" depart="0.00" from="edge60756" to="edge1515"/>
  <trip id="18949#2_8" depart="0.00" from="edge205969" to="edge68874"/>
  <trip id="37244#5_456" depart="0.00" from="edge208678" to="edge47494"/>
  <trip id="34626#1_407" depart="0.00" from="edge17766" to="edge61989"/>
  <trip id="25612#27_159" depart="0.00" from="edge64749" to="edge68874"/>
  <trip id="34063#4_382" depart="0.00" from="edge228493" to="edge74211"/>
  <trip id="25811#3_171" depart="0.00" from="edge60756" to="edge233"/>
  <trip id="36682#0_439" depart="0.00" from="edge148757" to="edge61989"/>
  <trip id="25303#4_149" depart="0.00" from="edge143915" to="edge253682"/>
  <trip id="71728#4_556" depart="0.00" from="edge245396" to="edge89484"/>
  <trip id="32683#1_341" depart="0.00" from="edge60756" to="edge233"/>
  <trip id="82952#3_627" depart="0.00" from="edge93632" to="edge61989"/>
  <trip id="80427#4_612" depart="0.00" from="edge93632" to="edge61989"/>
  <trip id="25282#4_145" depart="0.00" from="edge93632" to="edge253801"/>
  <trip id="18949#2_10" depart="0.00" from="edge198936" to="edge160343"/>
  <trip id="34267#1_386" depart="0.00" from="edge16626" to="edge89484"/>
  <trip id="25162#2_137" depart="0.00" from="edge93632" to="edge2906"/>
  <trip id="33159#1_358" depart="0.00" from="edge198936" to="edge257017"/>
  <trip id="25282#4_144" depart="0.00" from="edge256578" to="edge253682"/>
  <trip id="34305#1_395" depart="0.00" from="edge64749" to="edge68874"/>
  <trip id="33161#0_360" depart="0.00" from="edge215557" to="edge74208"/>
  <trip id="33299#20_365" depart="0.00" from="edge154197" to="edge246550"/>
  <trip id="81169#0_619" depart="0.00" from="edge93632" to="edge61989"/>
  <trip id="22635#4_111" depart="0.00" from="edge68689" to="edge61989"/>
  <trip id="27668#10_204" depart="0.00" from="edge1241" to="edge61989"/>
  <trip id="26028#5_176" depart="0.00" from="edge208109" to="edge1919"/>
  <trip id="83637#4_638" depart="0.00" from="edge208678" to="edge47494"/>
  <trip id="37244#5_454" depart="0.00" from="edge215580" to="edge218085"/>
  <trip id="83558#7_633" depart="0.00" from="edge252128" to="edge54377"/>
  <trip id="33040#3_352" depart="0.00" from="edge131160" to="edge217392"/>
  <trip id="25201#9_142" depart="0.00" from="edge3035" to="edge255833"/>
  <trip id="36527#2_430" depart="0.00" from="edge241701" to="edge1447"/>
  <trip id="85339#5_659" depart="0.00" from="edge198880" to="edge61989"/>
  <trip id="19556#1_42" depart="0.00" from="edge51342" to="edge89484"/>
  <trip id="38477#0_489" depart="0.00" from="edge256496" to="edge61989"/>
  <trip id="19375#16_24" depart="0.00" from="edge236794" to="edge89484"/>
  <trip id="25628#9_162" depart="0.00" from="edge5772" to="edge253682"/>
  <trip id="25845#2_172" depart="0.00" from="edge140829" to="edge176345"/>
  <trip id="23929#1_124" depart="0.00" from="edge60756" to="edge253800"/>
  <trip id="34295#0_388" depart="0.00" from="edge64749" to="edge68874"/>
  <trip id="32534#0_332" depart="0.00" from="edge90831" to="edge253801"/>
  <trip id="20153#2_66" depart="0.00" from="edge245440" to="edge89484"/>
  <trip id="62442#3_524" depart="0.00" from="edge140829" to="edge215214"/>
  <trip id="71212#0_544" depart="0.00" from="edge205130" to="edge11073"/>
  <trip id="34305#1_394" depart="0.00" from="edge62427" to="edge218085"/>
  <trip id="32220#1_325" depart="0.00" from="edge60756" to="edge233"/>
  <trip id="25699#2_167" depart="0.00" from="edge93632" to="edge61989"/>
  <trip id="83674#1_642" depart="0.00" from="edge208678" to="edge47494"/>
  <trip id="59757#1_521" depart="0.00" from="edge140829" to="edge245418"/>
  <trip id="33292#6_362" depart="0.00" from="edge125774" to="edge204197"/>
  <trip id="29108#9_215" depart="0.00" from="edge93632" to="edge147838"/>
  <trip id="22635#4_112" depart="0.00" from="edge208678" to="edge47494"/>
  <trip id="22126#0_92" depart="0.00" from="edge256602" to="edge257012"/>
  <trip id="33865#19_371" depart="0.00" from="edge16535" to="edge217004"/>
  <trip id="35956#2_419" depart="0.00" from="edge198880" to="edge61989"/>
  <trip id="38443#2_485" depart="0.00" from="edge210847" to="edge143978"/>
  <trip id="79437#0_611" depart="0.00" from="edge93632" to="edge61989"/>
  <trip id="31284#5_299" depart="0.00" from="edge64749" to="edge68874"/>
  <trip id="67599#3_535" depart="0.00" from="edge93632" to="edge61989"/>
  <trip id="25523#2_154" depart="0.00" from="edge253617" to="edge253682"/>
  <trip id="37518#2_690" depart="0.04" from="edge218132" to="edge218085"/>
  <trip id="32472#5_692" depart="0.05" from="edge64390" to="edge90148"/>
  <trip id="38653#29_703" depart="0.08" from="edge257288" to="edge218085"/>
  <trip id="38653#29_704" depart="0.08" from="edge64749" to="edge68874"/>
  <trip id="29645#17_716" depart="0.11" from="edge64749" to="edge68874"/>
  <trip id="86758#5_723" depart="0.14" from="edge198880" to="edge61989"/>
  <trip id="19379#7_744" depart="0.21" from="edge215221" to="edge123194"/>
  <trip id="38960#2_753" depart="0.25" from="edge64749" to="edge68874"/>
  <trip id="33250#6_756" depart="0.26" from="edge192157" to="edge204197"/>
  <trip id="71165#5_761" depart="0.28" from="edge240935" to="edge240777"/>
  <trip id="25310#1_762" depart="0.28" from="edge92775" to="edge253682"/>
  <trip id="34345#4_770" depart="0.29" from="edge245396" to="edge89484"/>
  <trip id="34345#4_768" depart="0.29" from="edge218088" to="edge204197"/>
  <trip id="34345#4_769" depart="0.29" from="edge64749" to="edge68874"/>
  <trip id="73889#0_777" depart="0.30" from="edge187577" to="edge240777"/>
  <trip id="34312#2_783" depart="0.32" from="edge64749" to="edge68874"/>
  <trip id="19275#2_792" depart="0.34" from="edge60756" to="edge808"/>
  <trip id="35003#2_791" depart="0.34" from="edge93632" to="edge1644"/>
  <trip id="22472#0_800" depart="0.36" from="edge213880" to="edge65590"/>
  <trip id="36780#6_804" depart="0.37" from="edge256513" to="edge253801"/>
  <trip id="36780#6_805" depart="0.37" from="edge93632" to="edge61989"/>
  <trip id="36475#1_810" depart="0.39" from="edge140867" to="edge253682"/>
  <trip id="36305#1_817" depart="0.40" from="edge198880" to="edge61989"/>
  <trip id="30315#6_818" depart="0.41" from="edge64749" to="edge68874"/>
  <trip id="29759#3_828" depart="0.45" from="edge64749" to="edge68874"/>
  <trip id="30370#1_836" depart="0.49" from="edge64749" to="edge176165"/>
  <trip id="37116#3_843" depart="0.50" from="edge256918" to="edge218085"/>
  <trip id="36815#5_842" depart="0.50" from="edge93632" to="edge189681"/>
  <trip id="37116#3_844" depart="0.50" from="edge64749" to="edge68874"/>
  <trip id="34611#5_849" depart="0.51" from="edge208678" to="edge47494"/>
  <trip id="80924#1_853" depart="0.52" from="edge93632" to="edge111100"/>
  <trip id="71734#8_860" depart="0.53" from="edge187577" to="edge218085"/>
  <trip id="71734#8_861" depart="0.53" from="edge64749" to="edge68874"/>
  <trip id="29111#2_865" depart="0.54" from="edge93632" to="edge256691"/>
  <trip id="34553#16_871" depart="0.55" from="edge255921" to="edge89484"/>
  <trip id="36816#21_875" depart="0.58" from="edge189677" to="edge253801"/>
  <trip id="37283#0_880" depart="0.59" from="edge64749" to="edge68874"/>
  <trip id="65225#5_882" depart="0.59" from="edge240935" to="edge240845"/>
  <trip id="38612#24_884" depart="0.60" from="edge64749" to="edge68874"/>
  <trip id="38612#24_883" depart="0.60" from="edge160188" to="edge218085"/>
  <trip id="31300#3_886" depart="0.61" from="edge64749" to="edge68874"/>
  <trip id="29990#0_891" depart="0.61" from="edge208678" to="edge47494"/>
  <trip id="33107#4_894" depart="0.62" from="edge204023" to="edge218085"/>
  <trip id="25122#7_892" depart="0.62" from="edge81756" to="edge218085"/>
  <trip id="30980#2_902" depart="0.64" from="edge64749" to="edge68874"/>
  <trip id="36792#3_908" depart="0.65" from="edge256718" to="edge253801"/>
  <trip id="72195#4_911" depart="0.65" from="edge93632" to="edge61989"/>
  <trip id="55972#20_912" depart="0.66" from="edge208678" to="edge47494"/>
  <trip id="34399#7_915" depart="0.66" from="edge60756" to="edge256009"/>
  <trip id="31412#2_920" depart="0.67" from="edge64749" to="edge68874"/>
  <trip id="19660#5_937" depart="0.72" from="edge70315" to="edge89484"/>
  <trip id="38723#1_951" depart="0.75" from="edge218417" to="edge253682"/>
  <trip id="69248#1_950" depart="0.75" from="edge64749" to="edge176165"/>
  <trip id="69248#1_949" depart="0.75" from="edge240935" to="edge218085"/>
  <trip id="78013#4_965" depart="0.78" from="edge240935" to="edge218085"/>
  <trip id="37568#1_958" depart="0.78" from="edge62407" to="edge218085"/>
  <trip id="37005#4_968" depart="0.79" from="edge253718" to="edge253801"/>
  <trip id="30843#2_972" depart="0.80" from="edge240935" to="edge218085"/>
  <trip id="38236#0_970" depart="0.80" from="edge198880" to="edge61989"/>
  <trip id="25923#0_975" depart="0.80" from="edge205969" to="edge68874"/>
  <trip id="24259#1_979" depart="0.82" from="edge205969" to="edge68874"/>
  <trip id="68219#1_992" depart="0.84" from="edge198880" to="edge111100"/>
  <trip id="76593#2_996" depart="0.86" from="edge240935" to="edge218085"/>
  <trip id="19095#2_998" depart="0.86" from="edge205969" to="edge68874"/>
  <trip id="36419#10_1009" depart="0.88" from="edge127635" to="edge255645"/>
  <trip id="19384#4_1011" depart="0.88" from="edge204240" to="edge15527"/>
  <trip id="86859#2_1025" depart="0.90" from="edge140829" to="edge67495"/>
  <trip id="25112#3_1032" depart="0.91" from="edge143913" to="edge253682"/>
  <trip id="71194#0_1054" depart="0.95" from="edge139865" to="edge179850"/>
  <trip id="71194#0_1052" depart="0.95" from="edge240935" to="edge218085"/>
  <trip id="71194#0_1053" depart="0.95" from="edge64749" to="edge68874"/>
  <trip id="34349#18_1061" depart="0.98" from="edge64749" to="edge68874"/>
  <trip id="34349#18_1060" depart="0.98" from="edge218295" to="edge218085"/>
  <trip id="38491#3_1077" depart="1.00" from="edge208678" to="edge47494"/>
  <trip id="23904#3_1071" depart="1.00" from="edge205969" to="edge68874"/>
  <trip id="25159#3_1074" depart="1.00" from="edge93632" to="edge104878"/>
  <trip id="78234#1_1085" depart="1.02" from="edge93632" to="edge61989"/>
  <trip id="81302#16_1088" depart="1.03" from="edge93632" to="edge61989"/>
  <trip id="34059#2_1091" depart="1.04" from="edge205958" to="edge68874"/>
  <trip id="78343#3_1095" depart="1.05" from="edge140829" to="edge103835"/>
  <trip id="32910#4_1100" depart="1.07" from="edge24003" to="edge250429"/>
  <trip id="83515#8_1103" depart="1.07" from="edge195753" to="edge196056"/>
  <trip id="20446#19_1115" depart="1.11" from="edge139865" to="edge66859"/>
  <trip id="31877#3_1117" depart="1.12" from="edge10845" to="edge808"/>
  <trip id="74152#13_1122" depart="1.12" from="edge240935" to="edge218085"/>
  <trip id="34063#2_1130" depart="1.13" from="edge66379" to="edge74208"/>
  <trip id="31000#0_1133" depart="1.13" from="edge245396" to="edge89484"/>
  <trip id="27767#8_1139" depart="1.14" from="edge256881" to="edge256499"/>
  <trip id="29575#0_1145" depart="1.15" from="edge5655" to="edge253801"/>
  <trip id="64147#0_1152" depart="1.16" from="edge240935" to="edge240790"/>
  <trip id="34449#2_1164" depart="1.18" from="edge2770" to="edge61989"/>
  <trip id="33885#5_1171" depart="1.19" from="edge245475" to="edge218085"/>
  <trip id="33885#5_1172" depart="1.19" from="edge64749" to="edge68874"/>
  <trip id="99900#0_1179" depart="1.20" from="edge88606" to="edge210168"/>
  <trip id="75973#3_1205" depart="1.24" from="edge240935" to="edge218085"/>
  <trip id="16612#0_1215" depart="1.27" from="edge60756" to="edge121115"/>
  <trip id="27755#3_1224" depart="1.29" from="edge256914" to="edge256499"/>
  <trip id="34529#6_1220" depart="1.29" from="edge255936" to="edge89484"/>
  <trip id="22399#0_1228" depart="1.31" from="edge203808" to="edge808"/>
  <trip id="82944#0_1233" depart="1.32" from="edge93632" to="edge245431"/>
  <trip id="64141#5_1234" depart="1.32" from="edge240935" to="edge240777"/>
  <trip id="79597#4_1245" depart="1.33" from="edge64749" to="edge176165"/>
  <trip id="31172#1_1239" depart="1.33" from="edge64749" to="edge68874"/>
  <trip id="71534#6_1252" depart="1.35" from="edge64749" to="edge68874"/>
  <trip id="38268#2_1253" depart="1.36" from="edge169456" to="edge61989"/>
  <trip id="38797#8_1262" depart="1.37" from="edge93632" to="edge108624"/>
  <trip id="19431#2_1270" depart="1.39" from="edge2732" to="edge89484"/>
  <trip id="29716#9_1286" depart="1.40" from="edge64749" to="edge68874"/>
  <trip id="32994#2_1278" depart="1.40" from="edge93632" to="edge773"/>
  <trip id="29716#9_1285" depart="1.40" from="edge255984" to="edge218085"/>
  <trip id="23975#1_1289" depart="1.41" from="edge205969" to="edge68874"/>
  <trip id="34115#10_1294" depart="1.41" from="edge153313" to="edge218114"/>
  <trip id="36999#2_1296" depart="1.42" from="edge253729" to="edge253801"/>
  <trip id="25275#0_1303" depart="1.43" from="edge255791" to="edge253612"/>
  <trip id="31009#4_1301" depart="1.43" from="edge60756" to="edge233"/>
  <trip id="85930#21_1312" depart="1.45" from="edge93632" to="edge61989"/>
  <trip id="26927#24_1323" depart="1.47" from="edge206388" to="edge254348"/>
  <trip id="100416#4_1330" depart="1.48" from="edge208678" to="edge47494"/>
  <trip id="19905#0_1334" depart="1.48" from="edge256552" to="edge89484"/>
  <trip id="28608#11_1346" depart="1.49" from="edge93632" to="edge253801"/>
  <trip id="28608#11_1345" depart="1.49" from="edge253683" to="edge253682"/>
  <trip id="71487#2_1359" depart="1.51" from="edge64749" to="edge68874"/>
  <trip id="38448#1_1366" depart="1.52" from="edge208678" to="edge47494"/>
  <trip id="34152#4_1369" depart="1.53" from="edge208109" to="edge15304"/>
  <trip id="56774#2_1371" depart="1.54" from="edge140829" to="edge17070"/>
  <trip id="19738#3_1373" depart="1.54" from="edge140830" to="edge89484"/>
  <trip id="36428#3_1379" depart="1.56" from="edge1797" to="edge257298"/>
  <trip id="29421#3_1386" depart="1.57" from="edge93632" to="edge95925"/>
  <trip id="25382#2_1391" depart="1.58" from="edge1901" to="edge253682"/>
  <trip id="26014#0_1394" depart="1.58" from="edge81999" to="edge60529"/>
  <trip id="27413#4_1405" depart="1.59" from="edge206388" to="edge78341"/>
  <trip id="32075#20_1419" depart="1.62" from="edge139870" to="edge255934"/>
  <trip id="30454#5_1433" depart="1.65" from="edge81999" to="edge63749"/>
  <trip id="27131#4_1449" depart="1.68" from="edge207512" to="edge256499"/>
  <trip id="83514#3_1455" depart="1.69" from="edge99243" to="edge54575"/>
  <trip id="36941#0_1454" depart="1.69" from="edge96008" to="edge253801"/>
  <trip id="29536#11_1462" depart="1.70" from="edge75986" to="edge253801"/>
  <trip id="33112#4_1460" depart="1.70" from="edge93632" to="edge67472"/>
  <trip id="33112#4_1459" depart="1.70" from="edge218179" to="edge253682"/>
  <trip id="25604#3_1464" depart="1.71" from="edge5815" to="edge253682"/>
  <trip id="32848#0_1481" depart="1.72" from="edge77270" to="edge81068"/>
  <trip id="71165#3_1487" depart="1.74" from="edge240935" to="edge253682"/>
  <trip id="38913#16_1484" depart="1.74" from="edge256450" to="edge253682"/>
  <trip id="71165#3_1486" depart="1.74" from="edge211943" to="edge240790"/>
  <trip id="80930#1_1489" depart="1.74" from="edge93632" to="edge61989"/>
  <trip id="27485#18_1498" depart="1.77" from="edge186006" to="edge61989"/>
  <trip id="86453#4_1509" depart="1.78" from="edge93632" to="edge61989"/>
  <trip id="32049#9_1508" depart="1.78" from="edge256562" to="edge255854"/>
  <trip id="25598#0_1520" depart="1.80" from="edge5815" to="edge253682"/>
  <trip id="25227#0_1521" depart="1.80" from="edge256567" to="edge253682"/>
  <trip id="38451#0_1518" depart="1.80" from="edge1231" to="edge61989"/>
  <trip id="36784#0_1528" depart="1.81" from="edge750" to="edge253682"/>
  <trip id="20834#1_1524" depart="1.81" from="edge168625" to="edge218085"/>
  <trip id="76540#4_1539" depart="1.83" from="edge240935" to="edge218085"/>
  <trip id="19632#7_1547" depart="1.84" from="edge139874" to="edge89484"/>
  <trip id="19632#7_1548" depart="1.84" from="edge60756" to="edge233"/>
  <trip id="32424#7_1551" depart="1.85" from="edge93771" to="edge128791"/>
  <trip id="30229#16_1560" depart="1.87" from="edge178899" to="edge253682"/>
  <trip id="33300#9_1564" depart="1.88" from="edge247192" to="edge15281"/>
  <trip id="30993#5_1578" depart="1.90" from="edge64749" to="edge68874"/>
  <trip id="38394#2_1576" depart="1.90" from="edge2537" to="edge61989"/>
  <trip id="30993#5_1580" depart="1.90" from="edge198936" to="edge62401"/>
  <trip id="34704#17_1590" depart="1.91" from="edge1281" to="edge89484"/>
  <trip id="87851#0_1588" depart="1.91" from="edge93632" to="edge61989"/>
  <trip id="36904#5_1598" depart="1.92" from="edge1639" to="edge253801"/>
  <trip id="30989#6_1592" depart="1.92" from="edge62475" to="edge218085"/>
  <trip id="65320#2_1605" depart="1.93" from="edge93632" to="edge61989"/>
  <trip id="31973#4_1610" depart="1.94" from="edge208678" to="edge47494"/>
  <trip id="86235#0_1606" depart="1.94" from="edge140829" to="edge185616"/>
  <trip id="71166#9_1608" depart="1.94" from="edge211943" to="edge240790"/>
  <trip id="85546#3_1625" depart="1.97" from="edge134370" to="edge209492"/>
  <trip id="19656#1_1640" depart="1.98" from="edge8" to="edge89484"/>
  <trip id="29662#1_1633" depart="1.98" from="edge168625" to="edge218085"/>
  <trip id="29662#1_1634" depart="1.98" from="edge64749" to="edge68874"/>
  <trip id="29346#6_1638" depart="1.98" from="edge64749" to="edge68874"/>
  <trip id="29012#9_15268" depart="10.00" from="edge93632" to="edge20045"/>
  <trip id="21581#0_15267" depart="10.00" from="edge198880" to="edge61989"/>
  <trip id="34611#2_15272" depart="10.00" from="edge208678" to="edge47494"/>
  <trip id="34250#4_15281" depart="10.00" from="edge16626" to="edge89484"/>
  <trip id="76507#4_15286" depart="10.01" from="edge93632" to="edge61989"/>
  <trip id="22333#3_15292" depart="10.01" from="edge79322" to="edge808"/>
  <trip id="31411#0_15289" depart="10.01" from="edge198936" to="edge112200"/>
  <trip id="31411#0_15288" depart="10.01" from="edge245396" to="edge89484"/>
  <trip id="19349#3_15294" depart="10.01" from="edge60756" to="edge81146"/>
  <trip id="78032#2_15323" depart="10.02" from="edge93632" to="edge61989"/>
  <trip id="79477#0_15326" depart="10.02" from="edge93632" to="edge61989"/>
  <trip id="22399#1_15304" depart="10.02" from="edge94737" to="edge808"/>
  <trip id="71729#12_15334" depart="10.03" from="edge187577" to="edge218085"/>
  <trip id="19482#2_15330" depart="10.03" from="edge2732" to="edge89484"/>
  <trip id="81306#3_15336" depart="10.03" from="edge93632" to="edge61989"/>
  <trip id="25145#2_15354" depart="10.03" from="edge93632" to="edge253801"/>
  <trip id="87738#2_15331" depart="10.03" from="edge90511" to="edge47494"/>
  <trip id="19436#7_15346" depart="10.03" from="edge256552" to="edge75638"/>
  <trip id="36302#3_15372" depart="10.04" from="edge196452" to="edge64156"/>
  <trip id="29201#4_15378" depart="10.04" from="edge208109" to="edge208484"/>
  <trip id="32522#0_15364" depart="10.04" from="edge199138" to="edge89484"/>
  <trip id="29586#1_15422" depart="10.06" from="edge253717" to="edge253801"/>
  <trip id="44855#5_15421" depart="10.06" from="edge140829" to="edge15304"/>
  <trip id="77985#3_15415" depart="10.06" from="edge240935" to="edge218085"/>
  <trip id="37167#2_15430" depart="10.06" from="edge64749" to="edge68874"/>
  <trip id="36846#2_15425" depart="10.06" from="edge197878" to="edge253801"/>
  <trip id="100351#142_15458" depart="10.07" from="edge134370" to="edge210168"/>
  <trip id="25784#2_15454" depart="10.07" from="edge60756" to="edge272"/>
  <trip id="100351#142_15457" depart="10.07" from="edge208678" to="edge47494"/>
  <trip id="29261#3_15438" depart="10.07" from="edge103735" to="edge253801"/>
  <trip id="38607#16_15434" depart="10.07" from="edge87648" to="edge218085"/>
  <trip id="69794#1_15461" depart="10.07" from="edge140829" to="edge66856"/>
  <trip id="11339#3_15462" depart="10.08" from="edge205969" to="edge68874"/>
  <trip id="38590#0_15467" depart="10.08" from="edge93632" to="edge746"/>
  <trip id="33080#1_15472" depart="10.08" from="edge182940" to="edge253682"/>
  <trip id="34443#2_15481" depart="10.09" from="edge256024" to="edge89484"/>
  <trip id="30577#7_15499" depart="10.09" from="edge64749" to="edge68874"/>
  <trip id="25156#1_15508" depart="10.09" from="edge64749" to="edge176165"/>
  <trip id="34655#10_15485" depart="10.09" from="edge139880" to="edge89484"/>
  <trip id="27191#3_15497" depart="10.09" from="edge1243" to="edge253438"/>
  <trip id="25156#1_15507" depart="10.09" from="edge3030" to="edge218085"/>
  <trip id="77302#0_15525" depart="10.10" from="edge140829" to="edge140784"/>
  <trip id="29327#1_15517" depart="10.10" from="edge5428" to="edge253957"/>
  <trip id="71194#11_15512" depart="10.10" from="edge77" to="edge240790"/>
  <trip id="37068#7_15526" depart="10.10" from="edge253729" to="edge253801"/>
  <trip id="21915#25_15542" depart="10.11" from="edge120199" to="edge253801"/>
  <trip id="34099#6_15539" depart="10.11" from="edge40270" to="edge218085"/>
  <trip id="21945#6_15533" depart="10.11" from="edge96001" to="edge208256"/>
  <trip id="79478#0_15541" depart="10.11" from="edge93632" to="edge61989"/>
  <trip id="37523#10_15548" depart="10.11" from="edge64749" to="edge68874"/>
  <trip id="30543#15_15543" depart="10.11" from="edge64749" to="edge68874"/>
  <trip id="30968#23_15556" depart="10.11" from="edge215557" to="edge156854"/>
  <trip id="37079#0_15538" depart="10.11" from="edge93632" to="edge61989"/>
  <trip id="38390#0_15565" depart="10.12" from="edge204442" to="edge61989"/>
  <trip id="22234#1_15567" depart="10.12" from="edge256887" to="edge808"/>
  <trip id="36198#0_15584" depart="10.12" from="edge198880" to="edge256652"/>
  <trip id="27013#6_15600" depart="10.13" from="edge255763" to="edge2550"/>
  <trip id="33360#2_15604" depart="10.13" from="edge64749" to="edge176165"/>
  <trip id="81184#3_15618" depart="10.14" from="edge139865" to="edge215210"/>
  <trip id="29661#2_15619" depart="10.14" from="edge197918" to="edge253801"/>
  <trip id="25072#1_15633" depart="10.15" from="edge198880" to="edge61989"/>
  <trip id="70915#2_15623" depart="10.15" from="edge198880" to="edge61989"/>
  <trip id="71586#0_15674" depart="10.16" from="edge240935" to="edge240777"/>
  <trip id="34742#1_15667" depart="10.16" from="edge224420" to="edge61989"/>
  <trip id="85390#11_15647" depart="10.16" from="edge199252" to="edge222557"/>
  <trip id="36835#2_15669" depart="10.16" from="edge1641" to="edge253801"/>
  <trip id="85390#11_15648" depart="10.16" from="edge208678" to="edge47494"/>
  <trip id="29579#1_15668" depart="10.16" from="edge139620" to="edge253801"/>
  <trip id="29944#3_15678" depart="10.17" from="edge205969" to="edge68874"/>
  <trip id="86638#7_15676" depart="10.17" from="edge93632" to="edge61989"/>
  <trip id="34208#17_15680" depart="10.17" from="edge119393" to="edge218085"/>
  <trip id="76073#0_15687" depart="10.17" from="edge93632" to="edge61989"/>
  <trip id="72171#2_15683" depart="10.17" from="edge93632" to="edge255854"/>
  <trip id="71526#2_15692" depart="10.17" from="edge240935" to="edge240777"/>
  <trip id="29944#3_15679" depart="10.17" from="edge81999" to="edge182777"/>
  <trip id="24811#1_15696" depart="10.17" from="edge93632" to="edge61989"/>
  <trip id="29944#3_15677" depart="10.17" from="edge256095" to="edge61989"/>
  <trip id="24811#1_15698" depart="10.17" from="edge81999" to="edge119418"/>
  <trip id="81177#0_15699" depart="10.18" from="edge93632" to="edge61989"/>
  <trip id="32639#0_15713" depart="10.19" from="edge60756" to="edge17770"/>
  <trip id="40330#5_15711" depart="10.19" from="edge198880" to="edge61989"/>
  <trip id="30135#1_15723" depart="10.19" from="edge64749" to="edge68874"/>
  <trip id="34099#10_15727" depart="10.19" from="edge45291" to="edge218085"/>
  <trip id="34099#10_15728" depart="10.19" from="edge64749" to="edge68874"/>