<edges>
  <edge id="edge1" from="node2" to="node181719" priority="2" numLanes="2" speed="20" shape="385558.06940207706,395684.55322656175 385563.5709709398,395657.6238639884 385571.08599129796,395631.15559360816 385587.7312497484,395598.1509337145 385590.12940909114,395594.1606683687">
    <lane allow="bus" index="0"/>
  </edge>
  <edge id="edge2" from="node4" to="node5" priority="2" numLanes="2" speed="20" shape="385048.0569122802,395678.33844181255 385058.91471021797,395682.8987187885 385073.90767405677,395689.04794920166 385145.6810567791,395718.64785207534">
    <lane allow="bus" index="0"/>
  </edge>
  <edge id="edge3" from="node6" to="node178882" priority="2" numLanes="2" speed="20" shape="385927.22350612225,395601.92782452353 385927.1318288264,395524.7842979701 385909.0354208519,395504.3454896558 385885.1370136412,395475.68023039075">
    <lane allow="bus" index="0"/>
  </edge>
  <edge id="edge4" from="node8" to="node9" priority="2" numLanes="2" speed="20" shape="384725.1922032123,396529.3398365088 384751.9942063791,396490.680780705">
    <lane allow="bus" index="0"/>
  </edge>
  <edge id="edge6" from="node11" to="node145834" priority="2" numLanes="2" speed="20" shape="384834.9983675303,396588.50540563406 384838.5350678997,396585.89063156286 384867.770017009,396541.8285283437 384868.6281206006,396540.290450028 384887.6119047906,396506.18541750364 384899.5673037142,396485.1087189879 384929.6190397451,396500.75476446946 384930.74122787645,396498.74858094717">
    <lane allow="bus" index="0"/>
  </edge>
  <edge id="edge7" from="node13" to="node14" priority="2" numLanes="2" speed="50" shape="384751.06314738526,396543.3740255381 384783.0837781342,396494.5517845632 384786.84268809785,396488.7877452083 384810.5855624436,396452.40852824645 384817.3768698826,396442.0065174165">
    <lane allow="bus" index="0"/>
  </edge>
  <edge id="edge8" from="node15" to="node214166" priority="2" numLanes="2" speed="30" shape="384817.6961815836,396269.6052653721 384825.81003398186,396273.9179872336 384831.11727998505,396276.73784475937 384834.7153009948,396278.6509362813 384895.82799163007,396311.1407052126">
    <lane allow="bus" index="0"/>
  </edge>
  <edge id="edge9" from="node17" to="node181721" priority="2" numLanes="2" speed="20" shape="385457.3917726433,395667.2299538034 385459.71968700184,395655.60778221954 385477.9953343079,395589.6552410962">
    <lane allow="bus" index="0"/>
  </edge>
  <edge id="edge10" from="node19" to="node20" priority="2" numLanes="2" speed="50" shape="385370.0847594937,395555.46775023674 385314.5786503036,395540.58817249595">
    <lane allow="bus" index="0"/>
  </edge>
  <edge id="edge11" from="node21" to="node232248" priority="2" numLanes="2" speed="20" shape="385128.95528966846,395488.00343158824 385134.3805740508,395490.133477823 385154.15351702966,395497.8810345469">
    <lane allow="bus" index="0"/>
  </edge>
  <edge id="edge12" from="node5" to="node220770" priority="2" numLanes="2" speed="20" shape="385145.6810567791,395718.64785207534 385155.71850791713,395694.79654160637">
    <lane allow="bus" index="0"/>
  </edge>
  <edge id="edge13" from="node24" to="node25" priority="2" numLanes="2" speed="20" shape="385171.7390033007,395504.7677906555 385142.6516439492,395592.1499336871">
    <lane allow="bus" index="0"/>
  </edge>
  <edge id="edge14" from="node26" to="node220773" priority="2" numLanes="2" speed="20" shape="385068.3980626685,395633.14893448877 385094.2883702448,395643.7026714205">
    <lane allow="bus" index="0"/>
  </edge>
  <edge id="edge19" from="node37" to="node38" priority="2" numLanes="2" speed="20" shape="385461.21691993426,395216.7044210712 385466.9852364044,395226.63271987403 385468.90793380473,395232.06711354933 385470.0217048703,395237.9045251628 385471.2062796839,395249.4601941657 385471.2558866202,395261.2085052861 385470.17789924896,395269.0886500777 385468.4877069781,395276.5590471914 385466.75182740437,395284.28547145234 385464.4031615124,395291.4130182689 385458.335071763,395304.7600715388 385451.6469311062,395317.2968955614 385449.02179627033,395320.90966711735">
    <lane allow="bus" index="0"/>
  </edge>
  <edge id="edge20" from="node39" to="node40" priority="2" numLanes="2" speed="20" shape="385398.5931399728,395370.0959236443 385383.8455517881,395372.5671202913 385375.191738016,395372.1824049334 385366.60217939736,395371.10772781225 385357.19544130773,395367.7771477128 385299.61075684364,395336.6054420168">
    <lane allow="bus" index="0"/>
  </edge>
  <edge id="edge21" from="node41" to="node113157" priority="2" numLanes="2" speed="20" shape="385176.5528442492,395327.80238573067 385218.0585477045,395343.20276715106">
    <lane allow="bus" index="0"/>
  </edge>
  <edge id="edge22" from="node43" to="node44" priority="2" numLanes="2" speed="20" shape="385618.6595379007,395115.93521535833 385611.47087598284,395132.2337362273 385587.57283673785,395161.177486504">
    <lane allow="bus" index="0"/>
  </edge>
  <edge id="edge23" from="node28" to="node176362" priority="2" numLanes="2" speed="20" shape="385359.5188977314,395233.2633155454 385362.5097703424,395229.8162371198 385396.849351064,395187.18796556623 385400.0851535769,395185.6092240723 385404.4100326119,395186.16318635386 385408.2590580737,395187.4529091889">
    <lane allow="bus" index="0"/>
  </edge>
  <edge id="edge24" from="node45" to="node79789" priority="2" numLanes="2" speed="20" shape="385785.90205728606,395288.7828228343 385761.19198641105,395315.0024273467 385750.0011027065,395323.2803075105">
    <lane allow="bus" index="0"/>
  </edge>
  <edge id="edge25" from="node47" to="node48" priority="2" numLanes="2" speed="20" shape="385531.9685092754,395266.6395190627 385558.3780638303,395270.8193164625 385570.8029913208,395270.89239796385 385583.9616384916,395282.8452296347 385627.484731265,395291.6011173627 385649.5878540553,395292.6015970681 385669.541100282,395305.0456875118">
    <lane allow="bus" index="0"/>
  </edge>
  <edge id="edge26" from="node42" to="node40" priority="2" numLanes="2" speed="20" shape="385283.096017992,395366.41769554414 385285.3659121907,395366.0434475471 385286.6829785254,395364.6375176323 385299.61075684364,395336.6054420168">
    <lane allow="bus" index="0"/>
  </edge>
  <edge id="edge27" from="node50" to="node51" priority="2" numLanes="2" speed="20" shape="385985.5983206009,395317.29810127796 385928.3858354686,395371.49425528914 385921.445761432,395377.9010506183 385894.99684971524,395402.3228500477 385871.6539560376,395423.8762190327 385854.8803284433,395439.36880583945 385740.7523094087,395544.76025091705">
    <lane allow="bus" index="0"/>
  </edge>
  <edge id="edge67" from="node128" to="node133238" priority="2" numLanes="2" speed="20" shape="382982.5942882572,394797.27010069805 383072.1777699508,394804.1117298874">
    <lane allow="bus" index="0"/>
  </edge>
  <edge id="edge68" from="node130" to="node133252" priority="2" numLanes="2" speed="20" shape="383172.7185012735,395176.5096949898 383173.6375204409,395136.3879772447">
    <lane allow="bus" index="0"/>
  </edge>
  <edge id="edge69" from="node132" to="node151904" priority="2" numLanes="2" speed="20" shape="383351.12668135465,394951.9638007896 383214.628799524,394936.41708162776">
    <lane allow="bus" index="0"/>
  </edge>
  <edge id="edge70" from="node134" to="node133073" priority="2" numLanes="2" speed="20" shape="383015.80318758584,394689.288758779 383186.0408876213,394693.6392536491 383238.26308647427,394695.49999220466">
    <lane allow="bus" index="0"/>
  </edge>
  <edge id="edge71" from="node136" to="node137" priority="2" numLanes="2" speed="20" shape="383474.2651228587,394221.67764597456 383479.6655130641,394087.45243606815">
    <lane allow="bus" index="0"/>
  </edge>
  <edge id="edge72" from="node138" to="node101991" priority="2" numLanes="2" speed="20" shape="383395.25211736246,393764.911490532 383393.9323993196,393806.94805970707">
    <lane allow="bus" index="0"/>
  </edge>
  <edge id="edge73" from="node140" to="node141" priority="2" numLanes="2" speed="20" shape="383561.77637540083,394316.91640610696 383374.63670128636,394311.19910137577">
    <lane allow="bus" index="0"/>
  </edge>
  <edge id="edge74" from="node142" to="node136" priority="2" numLanes="2" speed="20" shape="383378.1037154598,394219.0347635834 383474.2651228587,394221.67764597456">
    <lane allow="bus" index="0"/>
  </edge>
  <edge id="edge77" from="node148" to="node48929" priority="2" numLanes="2" speed="30" shape="387486.4765552878,391150.0838437116 387498.0628053317,391145.6584920058 387591.66296633036,391142.52893303987">
    <lane allow="bus" index="0"/>
  </edge>
  <edge id="edge78" from="node148" to="node19839" priority="2" numLanes="2" speed="30" shape="387486.4765552878,391150.0838437116 387485.5927758935,391087.7619919933">
    <lane allow="bus" index="0"/>
  </edge>
  <edge id="edge86" from="node164" to="node19857" priority="2" numLanes="2" speed="30" shape="387312.35102932324,391555.42462322954 387382.37489588215,391645.6518643152">
    <lane allow="bus" index="0"/>
  </edge>
  <edge id="edge92" from="node148" to="node19848" priority="2" numLanes="2" speed="30" shape="387486.4765552878,391150.0838437116 387446.7129213393,391155.79707278346 387430.66184294963,391153.3256476482">
    <lane allow="bus" index="0"/>
  </edge>
  <edge id="edge95" from="node179" to="node182" priority="2" numLanes="2" speed="30" shape="387510.5671628886,392169.0802877843 387516.3679437783,392168.96474054933 387520.52168188867,392164.192047136 387540.9531967702,392128.40313800715">
    <lane allow="bus" index="0"/>
  </edge>
  <edge id="edge96" from="node179" to="node19868" priority="2" numLanes="2" speed="30" shape="387510.5671628886,392169.0802877843 387468.05218558625,392159.0249273484 387439.2117689573,392151.1806899558">
    <lane allow="bus" index="0"/>
  </edge>
  <edge id="edge97" from="node182" to="node19878" priority="2" numLanes="2" speed="20" shape="387540.9531967702,392128.40313800715 387588.10363143147,392170.05406506173">
    <lane allow="bus" index="0"/>
  </edge>
  <edge id="edge98" from="node184" to="node46012" priority="2" numLanes="2" speed="20" shape="387792.075055995,392247.95331137074 387794.5798684168,392245.276713451 387808.6600348749,392224.6582172987 387837.57086512895,392183.130150756">
    <lane allow="bus" index="0"/>
  </edge>
  <edge id="edge103" from="node193" to="node194" priority="2" numLanes="2" speed="20" shape="387702.79589918675,391050.2635266403 387705.6823391331,391134.78635562846">
    <lane allow="bus" index="0"/>
  </edge>
  <edge id="edge104" from="node195" to="node193" priority="2" numLanes="2" speed="20" shape="387734.45866243984,391049.69124981377 387702.79589918675,391050.2635266403">
    <lane allow="bus" index="0"/>
  </edge>
  <edge id="edge233" from="node446" to="node447" priority="2" numLanes="2" speed="70" shape="382612.61466276523,391036.3675757422 382612.2534759374,391030.35006531613 382611.96171679924,391012.5282456933 382616.0828089658,390990.9520070758 382624.53312423016,390966.35594670655 382636.4163765836,390942.60390598606 382643.29656134767,390931.9871728222 382649.4606017127,390923.63154363655 382658.11830460787,390913.7648144024 382666.8117330441,390904.565493944 382694.03000691795,390882.7152817907">
    <lane allow="bus" index="0"/>
  </edge>
  <edge id="edge240" from="node457" to="node458" priority="2" numLanes="4" speed="70" shape="381834.28440229624,390858.57151568116 381791.2333929059,390865.7132784574 381715.12687016133,390879.53642499767 381625.10158098815,390903.4167857773 381524.2129588809,390940.01328152657 381435.32546833623,390980.5475516419 381346.6327801683,391032.97580365185 381256.2919303251,391094.9912737362 381201.951121597,391145.4055896312">
    <lane allow="bus" index="0"/>
  </edge>
  <edge id="edge269" from="node510" to="node511" priority="2" numLanes="2" speed="20" shape="385520.24650132464,393748.56665337324 385516.690170683,393749.9349090959 385504.5920195368,393755.87979218195">
    <lane allow="bus" index="0"/>
  </edge>
  <edge id="edge270" from="node512" to="node132856" priority="2" numLanes="2" speed="20" shape="385574.2114271165,393862.8812552631 385589.52319659624,393852.19839400117">
    <lane allow="bus" index="0"/>
  </edge>
  <edge id="edge271" from="node514" to="node515" priority="2" numLanes="2" speed="20" shape="386061.0190573034,393442.2403964595 386103.0774897385,393440.0354007369">
    <lane allow="bus" index="0"/>
  </edge>
  <edge id="edge272" from="node516" to="node1407" priority="2" numLanes="2" speed="20" shape="385907.3119540724,393467.96453038213 385942.23300726194,393467.2146871228">
    <lane allow="bus" index="0"/>
  </edge>
  <edge id="edge273" from="node518" to="node1119" priority="2" numLanes="2" speed="20" shape="385900.8355699324,393226.7852169136 385934.4440281988,393237.4872989744">
    <lane allow="bus" index="0"/>
  </edge>
  <edge id="edge274" from="node520" to="node514" priority="2" numLanes="2" speed="20" shape="386058.72725773486,393393.0061628075 386061.0190573034,393442.2403964595">
    <lane allow="bus" index="0"/>
  </edge>
  <edge id="edge275" from="node522" to="node1269" priority="2" numLanes="2" speed="20" shape="385444.0643224205,392545.9231725761 385453.71293689037,392544.0353793822 385481.52654313407,392571.9298018015 385519.1950871104,392606.81415567745">
    <lane allow="bus" index="0"/>
  </edge>
  <edge id="edge276" from="node524" to="node1365" priority="2" numLanes="2" speed="20" shape="385171.071017255,392236.87806450605 385200.55665543355,392273.4433778507">
    <lane allow="bus" index="0"/>
  </edge>
  <edge id="edge277" from="node526" to="node1120" priority="2" numLanes="2" speed="20" shape="386261.9791245479,393345.3027106267 386105.48730175436,393331.60011445696">
    <lane allow="bus" index="0"/>
  </edge>
  <edge id="edge278" from="node528" to="node1277" priority="2" numLanes="2" speed="20" shape="384909.4806734106,392972.4425197693 384916.1194436028,392970.8414180755 384922.44405688264,392970.7210119195 384928.9846240352,392971.6457105628 384950.98584689444,392976.8153348358 384974.2213529177,392983.61655276257 385004.9206885074,392993.3868176832">
    <lane allow="bus" index="0"/>
  </edge>
  <edge id="edge279" from="node530" to="node520" priority="2" numLanes="2" speed="20" shape="386169.9445574802,393501.97353004146 386167.36446869414,393437.9099325886 386166.56256721605,393434.05177851126 386164.4668141552,393430.73145257623 386141.5546648141,393406.08944104536 386138.0313421936,393403.0292206612 386134.2834907594,393400.4258067383 386109.44293321075,393393.24539433443 386105.4671820082,393392.21135828114 386058.72725773486,393393.0061628075">
    <lane allow="bus" index="0"/>
  </edge>
  <edge id="edge280" from="node532" to="node538" priority="2" numLanes="2" speed="20" shape="385882.66775379586,393194.3535717349 385892.8983774235,393187.54749058856 385917.01136605977,393166.50381220813 385928.20406781405,393157.02483011753">
    <lane allow="bus" index="0"/>
  </edge>
  <edge id="edge281" from="node534" to="node172925" priority="2" numLanes="2" speed="20" shape="386124.32334344485,392985.711493479 386177.9511720561,393039.4226526495">
    <lane allow="bus" index="0"/>
  </edge>
  <edge id="edge282" from="node536" to="node1013" priority="2" numLanes="2" speed="20" shape="386040.5651796352,393071.1132592932 386119.42571379023,393151.8281132305 386178.00634126697,393214.0689599402 386202.56666854484,393238.66180357436 386240.8557053087,393262.19102607854">
    <lane allow="bus" index="0"/>
  </edge>
  <edge id="edge283" from="node538" to="node1087" priority="2" numLanes="2" speed="20" shape="385928.20406781405,393157.02483011753 385963.6117735745,393198.33883357415">
    <lane allow="bus" index="0"/>
  </edge>
  <edge id="edge284" from="node540" to="node541" priority="2" numLanes="2" speed="40" shape="386270.99122209783,392850.7414542161 386282.9775748456,392841.79502181907">
    <lane allow="bus" index="0"/>
  </edge>
  <edge id="edge285" from="node542" to="node1009" priority="2" numLanes="2" speed="50" shape="386795.8559839759,393273.0257884819 386784.1444738718,393270.9893947568 386593.18476238684,393282.6669188572 386565.2218213711,393287.0856902782">
    <lane allow="bus" index="0"/>
  </edge>
  <edge id="edge286" from="node544" to="node133863" priority="2" numLanes="2" speed="20" shape="386420.03128852096,393469.3810396879 386449.35705091595,393461.1080866581 386479.28327852045,393460.62136684544">
    <lane allow="bus" index="0"/>
  </edge>
  <edge id="edge287" from="node546" to="node171141" priority="2" numLanes="2" speed="30" shape="385251.82882165606,393392.2418498156 385295.555457767,393373.23621192377">
    <lane allow="bus" index="0"/>
  </edge>
  <edge id="edge288" from="node548" to="node236489" priority="2" numLanes="2" speed="20" shape="385371.9683718936,393023.393107809 385365.85758036765,393013.2101255706 385358.67911807477,392841.4896420684">
    <lane allow="bus" index="0"/>
  </edge>
  <edge id="edge293" from="node557" to="node558" priority="2" numLanes="2" speed="20" shape="385722.95135377825,393562.50830113544 385777.9958907719,393573.5113521483">
    <lane allow="bus" index="0"/>
  </edge>
  <edge id="edge294" from="node559" to="node560" priority="2" numLanes="2" speed="20" shape="385736.15230565926,393505.97340517293 385790.0531435999,393516.4126729486">
    <lane allow="bus" index="0"/>
  </edge>
  <edge id="edge324" from="node616" to="node190711" priority="2" numLanes="2" speed="20" shape="385786.9925953851,392730.3233865979 385831.33489561634,392721.06673336145">
    <lane allow="bus" index="0"/>
  </edge>
  <edge id="edge325" from="node523" to="node3122" priority="2" numLanes="2" speed="20" shape="385770.0410840527,392646.21105846576 385844.72040184785,392623.0784636144">
    <lane allow="bus" index="0"/>
  </edge>
  <edge id="edge549" from="node1009" to="node1010" priority="2" numLanes="2" speed="50" shape="386565.2218213711,393287.0856902782 386573.8766748766,393328.3917954867 386584.70692095964,393380.11620310607">
    <lane allow="bus" index="0"/>
  </edge>
  <edge id="edge550" from="node1011" to="node1012" priority="2" numLanes="2" speed="50" shape="386509.6881808021,393300.5952689433 386504.82890806976,393271.8166983766 386515.10470486665,393243.4619434258 386528.07215016376,393243.2244916748">
    <lane allow="bus" index="0"/>
  </edge>
  <edge id="edge551" from="node1013" to="node198315" priority="2" numLanes="2" speed="20" shape="386240.8557053087,393262.19102607854 386240.05537476944,393274.74281803094 386249.9052577156,393305.7204750809">
    <lane allow="bus" index="0"/>
  </edge>
  <edge id="edge552" from="node1015" to="node1016" priority="2" numLanes="2" speed="20" shape="386225.6439414827,393426.01258792094 386286.03270343866,393424.2784213573">
    <lane allow="bus" index="0"/>
  </edge>
  <edge id="edge553" from="node1017" to="node521" priority="2" numLanes="2" speed="20" shape="385902.87534882163,393505.97109296045 385930.69552725524,393505.53172557434 385985.1667802494,393504.6792174873 386052.45487899194,393504.5680618882 386061.12341539486,393504.30871198216">
    <lane allow="bus" index="0"/>
  </edge>
  <edge id="edge554" from="node1019" to="node1088" priority="2" numLanes="2" speed="20" shape="386001.7134473502,393100.4329624507 386034.05816425575,393137.2619491746">
    <lane allow="bus" index="0"/>
  </edge>
  <edge id="edge593" from="node1087" to="node1088" priority="2" numLanes="2" speed="20" shape="385963.6117735745,393198.33883357415 386034.05816425575,393137.2619491746">
    <lane allow="bus" index="0"/>
  </edge>
  <edge id="edge594" from="node1089" to="node1090" priority="2" numLanes="2" speed="20" shape="385987.2214363409,393226.77166786644 386057.95265146793,393165.4495276535">
    <lane allow="bus" index="0"/>
  </edge>
  <edge id="edge595" from="node1091" to="node1092" priority="2" numLanes="2" speed="20" shape="385862.76220637147,393313.18818046927 385859.89277414203,393331.0308317527 385853.9861530705,393366.1381251065 385846.3200968425,393423.62391400704 385839.08686731814,393472.56410562067">
    <lane allow="bus" index="0"/>
  </edge>
  <edge id="edge596" from="node1093" to="node1095" priority="2" numLanes="2" speed="20" shape="385747.25131065596,393459.4021634682 385799.5239971627,393467.28763391444 385805.85722793726,393468.0361591496">
    <lane allow="bus" index="0"/>
  </edge>
  <edge id="edge597" from="node1095" to="node1096" priority="2" numLanes="2" speed="20" shape="385805.85722793726,393468.0361591496 385815.26634822105,393402.7683802736">
    <lane allow="bus" index="0"/>
  </edge>
  <edge id="edge598" from="node1097" to="node1098" priority="2" numLanes="2" speed="20" shape="385781.97320595564,393629.9941446591 385877.23527594015,393646.083558255 385880.002929104,393647.47704461095">
    <lane allow="bus" index="0"/>
  </edge>
  <edge id="edge599" from="node1099" to="node1100" priority="2" numLanes="2" speed="20" shape="385792.55716037407,393593.1926673199 385886.167137848,393607.50719139876">
    <lane allow="bus" index="0"/>
  </edge>
  <edge id="edge600" from="node1101" to="node1102" priority="2" numLanes="2" speed="30" shape="385349.41965793754,393501.16605374124 385353.64236769243,393498.28254186275 385360.5166771979,393493.5773350638">
    <lane allow="bus" index="0"/>
  </edge>
  <edge id="edge601" from="node1103" to="node138672" priority="2" numLanes="2" speed="20" shape="385523.6746213814,393496.2985105494 385537.2876299721,393520.4321289686 385609.7319081488,393653.1250985545">
    <lane allow="bus" index="0"/>
  </edge>
  <edge id="edge602" from="node1105" to="node1106" priority="2" numLanes="2" speed="20" shape="385654.1485206459,393512.25291046 385680.01501683786,393345.8825924192">
    <lane allow="bus" index="0"/>
  </edge>
  <edge id="edge603" from="node1107" to="node172437" priority="2" numLanes="2" speed="20" shape="385411.0928881509,393586.2060654025 385442.5295021525,393569.60963665065">
    <lane allow="bus" index="0"/>
  </edge>
  <edge id="edge604" from="node1103" to="node171145" priority="2" numLanes="2" speed="20" shape="385523.6746213814,393496.2985105494 385508.9384071608,393340.5659394143 385502.16288925253,393293.4039767858">
    <lane allow="bus" index="0"/>
  </edge>
  <edge id="edge605" from="node1110" to="node1111" priority="2" numLanes="2" speed="20" shape="385616.31662184425,393375.7151275309 385621.8285540638,393342.46667896316">
    <lane allow="bus" index="0"/>
  </edge>
  <edge id="edge606" from="node1112" to="node1403" priority="2" numLanes="2" speed="20" shape="385600.53236545244,393341.1078042326 385598.21985716524,393284.51994891185">
    <lane allow="bus" index="0"/>
  </edge>
  <edge id="edge607" from="node1114" to="node3119" priority="2" numLanes="2" speed="20" shape="385690.1481523228,393278.8768019767 385721.5190457251,393283.3984620816">
    <lane allow="bus" index="0"/>
  </edge>
  <edge id="edge608" from="node1116" to="node1117" priority="2" numLanes="2" speed="20" shape="385664.655786841,393674.918848764 385670.6366403947,393684.3683383614 385676.0083271506,393690.11492980894 385684.8529107804,393693.2476037757 385709.4775814238,393699.6365415839 385720.05828276975,393701.36220164475 385729.2393926692,393701.5790783331 385738.9391407,393699.76957453974 385749.9165414786,393696.4987883723 385776.6215827459,393690.1320482237 385868.16814448446,393697.0651826864 385872.2719130525,393698.76615894085">
    <lane allow="bus" index="0"/>
  </edge>
  <edge id="edge609" from="node1118" to="node1119" priority="2" numLanes="2" speed="20" shape="385938.91479327943,393335.099321512 385934.4440281988,393237.4872989744">
    <lane allow="bus" index="0"/>
  </edge>
  <edge id="edge610" from="node1120" to="node1121" priority="2" numLanes="2" speed="20" shape="386105.48730175436,393331.60011445696 386104.8703813332,393244.26755057694">
    <lane allow="bus" index="0"/>
  </edge>
  <edge id="edge611" from="node1122" to="node3144" priority="2" numLanes="2" speed="20" shape="385993.74225394265,393647.06997441733 385914.6116321243,393649.3424006341">
    <lane allow="bus" index="0"/>
  </edge>
  <edge id="edge685" from="node1262" to="node5168" priority="2" numLanes="2" speed="20" shape="385696.1865384947,393005.7409402811 385691.5792807989,392930.5027614552">
    <lane allow="bus" index="0"/>
  </edge>
  <edge id="edge686" from="node1264" to="node1265" priority="2" numLanes="2" speed="20" shape="385617.69412763923,393009.44038247835 385604.93506144144,392802.32450329437 385599.8345110107,392648.9765403605">
    <lane allow="bus" index="0"/>
  </edge>
  <edge id="edge687" from="node1266" to="node1267" priority="2" numLanes="2" speed="20" shape="385576.5030985339,393189.46431179164 385566.436950478,393011.63339370815">
    <lane allow="bus" index="0"/>
  </edge>
  <edge id="edge688" from="node1268" to="node1269" priority="2" numLanes="2" speed="20" shape="385538.46201295796,393012.3757474175 385528.61156997044,392814.5296942315 385519.1950871104,392606.81415567745">
    <lane allow="bus" index="0"/>
  </edge>
  <edge id="edge689" from="node1270" to="node522" priority="2" numLanes="2" speed="20" shape="385448.6407508022,392824.555697119 385450.2666840042,392819.6554907271 385436.2426329605,392551.9996015585 385444.0643224205,392545.9231725761">
    <lane allow="bus" index="0"/>
  </edge>
  <edge id="edge690" from="node1271" to="node179375" priority="2" numLanes="2" speed="20" shape="385251.20651680004,392871.819536607 385252.4764654644,392956.8692586701">
    <lane allow="bus" index="0"/>
  </edge>
  <edge id="edge691" from="node1273" to="node1377" priority="2" numLanes="2" speed="20" shape="385142.15201095777,392535.5304164494 385154.14969753526,392583.22049225424 385154.5962348265,392594.177600372 385153.2590183376,392667.32019491063">
    <lane allow="bus" index="0"/>
  </edge>
  <edge id="edge692" from="node1275" to="node1276" priority="2" numLanes="2" speed="20" shape="384990.5552462327,393171.9954464653 384994.7502530645,393168.73344106815 385003.8408234628,393158.96971353225 385019.77078170516,393139.7276166856 385031.82782416674,393122.6451025859 385046.23649720754,393097.0998321669 385055.35104238667,393071.80506010127 385072.0020517077,393015.83588458854">
    <lane allow="bus" index="0"/>
  </edge>
  <edge id="edge693" from="node1277" to="node1278" priority="2" numLanes="2" speed="20" shape="385004.9206885074,392993.3868176832 384989.16854755586,393043.50139704056 384987.41655082145,393046.1993375283 384985.2165850396,393048.008676061 384980.16901991476,393048.54768624046 384975.99892395,393047.1592032524">
    <lane allow="bus" index="0"/>
  </edge>
  <edge id="edge694" from="node1279" to="node177094" priority="2" numLanes="2" speed="20" shape="385016.2670019736,392997.11104585364 385029.92786060565,392918.12166473566">
    <lane allow="bus" index="0"/>
  </edge>
  <edge id="edge695" from="node1270" to="node1281" priority="2" numLanes="2" speed="20" shape="385448.6407508022,392824.555697119 385457.6906932222,392824.7724614225 385528.61156997044,392814.5296942315 385604.93506144144,392802.32450329437 385683.31809529156,392792.1279688621 385796.3063519257,392773.828908753">
    <lane allow="bus" index="0"/>
  </edge>
  <edge id="edge696" from="node1282" to="node152446" priority="2" numLanes="2" speed="20" shape="384952.1428730817,392580.4246154614 384961.64883206843,392583.8764678737 384965.4390802877,392584.7877610451 384970.20796752645,392584.21625214745 384983.42904790293,392579.62374085747 385006.01794566103,392572.6650642931">
    <lane allow="bus" index="0"/>
  </edge>
  <edge id="edge697" from="node1284" to="node205715" priority="2" numLanes="2" speed="20" shape="385508.0250420436,392487.96260606457 385522.2109741287,392505.15214781306 385534.58989708143,392518.15301656426">
    <lane allow="bus" index="0"/>
  </edge>
  <edge id="edge698" from="node1286" to="node1379" priority="2" numLanes="2" speed="20" shape="385206.17057071347,392516.0928254988 385217.92275178456,392526.0242333017 385246.61934097874,392536.2585045122">
    <lane allow="bus" index="0"/>
  </edge>
  <edge id="edge699" from="node1288" to="node1289" priority="2" numLanes="2" speed="20" shape="385333.3737696511,392494.8232213089 385371.21250815474,392457.8358250544">
    <lane allow="bus" index="0"/>
  </edge>
  <edge id="edge739" from="node1361" to="node107707" priority="2" numLanes="2" speed="20" shape="385482.538899268,392008.6704484856 385502.6512224245,392098.3012757264">
    <lane allow="bus" index="0"/>
  </edge>
  <edge id="edge740" from="node1283" to="node1363" priority="2" numLanes="2" speed="20" shape="385374.0224454246,392348.62023060553 385396.73996339494,392322.62748194346 385400.3815840402,392314.1497545054 385402.32950756693,392303.76371895545 385387.3448520704,392237.2804133198 385371.26666398026,392159.04102447635 385365.5077502199,392142.70461652597 385283.4675562251,392083.1504733801">
    <lane allow="bus" index="0"/>
  </edge>
  <edge id="edge741" from="node1364" to="node1365" priority="2" numLanes="2" speed="50" shape="385174.8207698784,392296.5539779702 385200.55665543355,392273.4433778507">
    <lane allow="bus" index="0"/>
  </edge>
  <edge id="edge742" from="node1366" to="node1367" priority="2" numLanes="2" speed="50" shape="385205.10026871605,392334.2404838632 385232.3836261296,392310.90268030786">
    <lane allow="bus" index="0"/>
  </edge>
  <edge id="edge743" from="node1368" to="node1366" priority="2" numLanes="2" speed="20" shape="385276.0153559779,392447.3301094867 385224.53500468354,392369.79178326344 385224.1996701832,392364.57502686296 385223.72469624574,392357.2115081732 385205.10026871605,392334.2404838632">
    <lane allow="bus" index="0"/>
  </edge>
  <edge id="edge744" from="node1370" to="node1372" priority="2" numLanes="2" speed="20" shape="385527.0239833943,392207.9336574427 385457.829978874,392222.99947511527">
    <lane allow="bus" index="0"/>
  </edge>